
    CNRS - NERC - Met OFFICE - MERCATOR-ocean - INGV - CMCC
                        NEMO team
             Ocean General Circulation Model
                   version 3.6  (2015) 


  mynode : mpi initialisation                                                    
  ~~~~~~                                                                         
     Namelist nammpp                                                             
        mpi send type                      cn_mpi_send = I                       
        size in bytes of exported buffer   nn_buffer   =            0            
        jpni, jpnj and jpnij will be calculated automatically                    
        avoid use of mpi_allgather at the north fold  ln_nnogather =  F          
             Immediate non-blocking send (isend)                                 

AAAAAAAA


 nemo_ctl: Control prints & Benchmark
 ~~~~~~~ 
    Namelist namctl
       run control (for debugging)     ln_ctl     =  F
       level of print                  nn_print   =            0
       Start i indice for SUM control  nn_ictls   =            0
       End i indice for SUM control    nn_ictle   =            0
       Start j indice for SUM control  nn_jctls   =            0
       End j indice for SUM control    nn_jctle   =            0
       number of proc. following i     nn_isplt   =            1
       number of proc. following j     nn_jsplt   =            1
       benchmark parameter (0/1)       nn_bench   =            0
       timing activated    (0/1)       nn_timing  =            0

 namcfg  : configuration initialization through namelist read
 ~~~~~~~ 
    Namelist namcfg
       configuration name              cp_cfg      = orca
       configuration zoom name         cp_cfz      = no zoom
       configuration resolution        jp_cfg      =            2
       1st lateral dimension ( >= jpi ) jpidta     =          182
       2nd    "         "    ( >= jpj ) jpjdta     =          149
       3nd    "         "               jpkdta     =           31
       1st dimension of global domain in i jpiglo  =          182
       2nd    -                  -    in j jpjglo  =          149
       left bottom i index of the zoom (in data domain) jpizoom =            1
       left bottom j index of the zoom (in data domain) jpizoom =            1
       lateral cond. type (between 0 and 6) jperio =            4
       use file attribute if exists as i/p j-start ln_use_jattr =  F

 mpp_init : Message Passing MPI
 ~~~~~~~~

            defines mpp subdomains
            ----------------------
            iresti=           6  irestj=           3
            jpni  =           6  jpnj  =           8

     ****************************************************************
     *              *               *               *               *   
   8 *   32  x 20   *    32  x 20   *    32  x 20   *    32  x 20   *   
     *              *               *               *               *   
     ****************************************************************
     *              *               *               *               *   
   7 *   32  x 20   *    32  x 20   *    32  x 20   *    32  x 20   *   
     *              *               *               *               *   
     ****************************************************************
     *              *               *               *               *   
   6 *   32  x 20   *    32  x 20   *    32  x 20   *    32  x 20   *   
     *              *               *               *               *   
     ****************************************************************
     *              *               *               *               *   
   5 *   32  x 20   *    32  x 20   *    32  x 20   *    32  x 20   *   
     *              *               *               *               *   
     ****************************************************************
     *              *               *               *               *   
   4 *   32  x 20   *    32  x 20   *    32  x 20   *    32  x 20   *   
     *              *               *               *               *   
     ****************************************************************
     *              *               *               *               *   
   3 *   32  x 21   *    32  x 21   *    32  x 21   *    32  x 21   *   
     *              *               *               *               *   
     ****************************************************************
     *              *               *               *               *   
   2 *   32  x 21   *    32  x 21   *    32  x 21   *    32  x 21   *   
     *              *               *               *               *   
     ****************************************************************
     *              *               *               *               *   
   1 *   32  x 21   *    32  x 21   *    32  x 21   *    32  x 21   *   
     *              *               *               *               *   
     ****************************************************************
             1               2               3               4             

     ********************************
     *              *               *   
   8 *   32  x 20   *    32  x 20   *   
     *              *               *   
     ********************************
     *              *               *   
   7 *   32  x 20   *    32  x 20   *   
     *              *               *   
     ********************************
     *              *               *   
   6 *   32  x 20   *    32  x 20   *   
     *              *               *   
     ********************************
     *              *               *   
   5 *   32  x 20   *    32  x 20   *   
     *              *               *   
     ********************************
     *              *               *   
   4 *   32  x 20   *    32  x 20   *   
     *              *               *   
     ********************************
     *              *               *   
   3 *   32  x 21   *    32  x 21   *   
     *              *               *   
     ********************************
     *              *               *   
   2 *   32  x 21   *    32  x 21   *   
     *              *               *   
     ********************************
     *              *               *   
   1 *   32  x 21   *    32  x 21   *   
     *              *               *   
     ********************************
             5               6             

  sum ilcit(i,1) =    182.00000000000000       jpiglo =          182
  sum ilcit(1,j) =    149.00000000000000       jpjglo =          149

  nproc  =            0
  nowe   =            5  noea   =             1
  nono   =            6  noso   =            -6
  nbondi =            0
  nbondj =           -1
  npolj  =            0
  nperio =            0
  nlci   =           32
  nlcj   =           21
  nimpp  =            1
  njmpp  =            1
  nbse   =            0  npse   =           -5
  nbsw   =            0  npsw   =           -1
  nbne   =            1  npne   =            7
  nbnw   =            1  npnw   =           11

 mpp_init_ioipsl :   iloc  =           32          21
 ~~~~~~~~~~~~~~~     iabsf =            1           1
                     ihals =            0           0
                     ihale =            1           1

  phy_cst : initialization of ocean parameters and constants
  ~~~~~~~
        Domain info
           dimension of model
                  Local domain      Global domain       Data domain 
               jpi     :      32   jpiglo  :     182   jpidta  :     182
               jpj     :      21   jpjglo  :     149   jpjdta  :     149
               jpk     :      31   jpk     :      31   jpkdta  :      31
               jpij    :          672
           mpp local domain info (mpp)
              jpni    :            6    jpreci  :            1
              jpnj    :            8    jprecj  :            1
              jpnij   :           48
           lateral domain boundary condition type : jperio  =            4

        Constants

           mathematical constant                 rpi =    3.1415926535897931     

           day                                rday   =    86400.000000000000       s
           sideral year                       rsiyea =    31558149.010110732       s
           sideral day                        rsiday =    86164.099655911836       s
           omega                              omega  =    7.2921150830460618E-005  s^-1

           nb of months per year               raamo =    12.000000000000000       months
           nb of hours per day                 rjjhh =    24.000000000000000       hours
           nb of minutes per hour              rhhmm =    60.000000000000000       mn
           nb of seconds per minute            rmmss =    60.000000000000000       s

           earth radius                         ra   =    6371229.0000000000       m
           gravity                              grav =    9.8066499999999994       m/s^2

           triple point of temperature      rtt      =    273.16000000000003       K
           freezing point of water          rt0      =    273.14999999999998       K
           melting point of snow            rt0_snow =    273.14999999999998       K
           melting point of ice             rt0_ice  =    273.05000000000001       K
           reference density and heat capacity now defined in eosbn2.f90

           thermal conductivity of the snow          =   0.22000000000000000       J/s/m/K
           thermal conductivity of the ice           =    2.0343960000000001       J/s/m/K
           fresh ice specific heat                   =    2093.0000000000000       J/kg/K
           latent heat of fusion of fresh ice / snow =    333700.00000000000       J/kg
           density times specific heat for snow      =    690690.00000000000       J/m^3/K
           density times specific heat for ice       =    1883700.0000000000       J/m^3/K
           volumetric latent heat fusion of sea ice  =    300330000.00000000       J/m
           latent heat of sublimation of snow        =    2800000.0000000000       J/kg
           volumetric latent heat fusion of snow     =    110121000.00000000       J/m^3
           density of sea ice                        =    900.00000000000000       kg/m^3
           density of snow                           =    330.00000000000000       kg/m^3
           emissivity of snow or ice                 =   0.96999999999999997     
           salinity of ice                           =    6.0000000000000000       psu
           salinity of sea                           =    34.700000000000003       psu
           latent heat of evaporation (water)        =    2500000.0000000000       J/m^3
           correction factor for solar radiation     =   0.90000000000000002     
           von Karman constant                       =   0.40000000000000002     
           Stefan-Boltzmann constant                 =    5.6699999999999998E-008  J/s/m^2/K^4

           conversion: degre ==> radian          rad =    1.7453292519943295E-002

           smallest real computer value       rsmall =    1.1102230246251565E-016

 eos_init : equation of state
 ~~~~~~~~
           Namelist nameos : set eos parameters
              flag for eq. of state and N^2  nn_eos   =           -1
              model uses Conservative Temperature
              Important: model must be initialized with CT and SA fields

           use of TEOS-10 equation of state (cons. temp. and abs. salinity)

           volumic mass of reference           rau0  =    1026.0000000000000       kg/m^3
           1. / rau0                        r1_rau0  =    9.7465886939571145E-004  m^3/kg
           ocean specific heat                 rcp   =    3991.8679571196299       J/Kelvin
           rau0 * rcp                       rau0_rcp =    4095656.5240047402     
           1. / ( rau0 * rcp )           r1_rau0_rcp =    2.4416109948160356E-007

 dom_cfg : set the ocean configuration
 ~~~~~~~ 
    ocean model configuration used :   cp_cfg = orca                                                                                                                                                                                                                                                             jp_cfg =            2
    global domain lateral boundaries
       jperio= 4, cyclic east-west and north fold with T-point pivot

 dom_glo : domain: data / local 
 ~~~~~~~ 
           data input domain    : jpidta =          182  jpjdta =          149  jpkdta =           31
           global or zoom domain: jpiglo =          182  jpjglo =          149  jpk    =           31
           local domain         : jpi    =           32  jpj    =           21  jpk    =           31

           south-west indices    jpizoom =            1  jpjzoom =            1

           conversion local  ==> data i-index domain
             1   2   3   4   5   6   7   8   9  10  11  12  13  14  15  16  17  18  19
            20  21  22  23  24  25  26  27  28  29  30  31  32

           conversion data   ==> local  i-index domain
              starting index
             1   2   3   4   5   6   7   8   9  10  11  12  13  14  15  16  17  18  19
            20  21  22  23  24  25  26  27  28  29  30  31  32  33  33  33  33  33  33
            33  33  33  33  33  33  33  33  33  33  33  33  33  33  33  33  33  33  33
            33  33  33  33  33  33  33  33  33  33  33  33  33  33  33  33  33  33  33
            33  33  33  33  33  33  33  33  33  33  33  33  33  33  33  33  33  33  33
            33  33  33  33  33  33  33  33  33  33  33  33  33  33  33  33  33  33  33
            33  33  33  33  33  33  33  33  33  33  33  33  33  33  33  33  33  33  33
            33  33  33  33  33  33  33  33  33  33  33  33  33  33  33  33  33  33  33
            33  33  33  33  33  33  33  33  33  33  33  33  33  33  33  33  33  33  33
            33  33  33  33  33  33  33  33  33  33  33
              ending index
             1   2   3   4   5   6   7   8   9  10  11  12  13  14  15  16  17  18  19
            20  21  22  23  24  25  26  27  28  29  30  31  32  32  32  32  32  32  32
            32  32  32  32  32  32  32  32  32  32  32  32  32  32  32  32  32  32  32
            32  32  32  32  32  32  32  32  32  32  32  32  32  32  32  32  32  32  32
            32  32  32  32  32  32  32  32  32  32  32  32  32  32  32  32  32  32  32
            32  32  32  32  32  32  32  32  32  32  32  32  32  32  32  32  32  32  32
            32  32  32  32  32  32  32  32  32  32  32  32  32  32  32  32  32  32  32
            32  32  32  32  32  32  32  32  32  32  32  32  32  32  32  32  32  32  32
            32  32  32  32  32  32  32  32  32  32  32  32  32  32  32  32  32  32  32
            32  32  32  32  32  32  32  32  32  32  32

           conversion local  ==> data j-index domain
             1   2   3   4   5   6   7   8   9  10  11  12  13  14  15  16  17  18  19
            20  21

           conversion data  ==> local j-index domain
              starting index
             1   2   3   4   5   6   7   8   9  10  11  12  13  14  15  16  17  18  19
            20  21  22  22  22  22  22  22  22  22  22  22  22  22  22  22  22  22  22
            22  22  22  22  22  22  22  22  22  22  22  22  22  22  22  22  22  22  22
            22  22  22  22  22  22  22  22  22  22  22  22  22  22  22  22  22  22  22
            22  22  22  22  22  22  22  22  22  22  22  22  22  22  22  22  22  22  22
            22  22  22  22  22  22  22  22  22  22  22  22  22  22  22  22  22  22  22
            22  22  22  22  22  22  22  22  22  22  22  22  22  22  22  22  22  22  22
            22  22  22  22  22  22  22  22  22  22  22  22  22  22  22  22
              ending index
             1   2   3   4   5   6   7   8   9  10  11  12  13  14  15  16  17  18  19
            20  21  21  21  21  21  21  21  21  21  21  21  21  21  21  21  21  21  21
            21  21  21  21  21  21  21  21  21  21  21  21  21  21  21  21  21  21  21
            21  21  21  21  21  21  21  21  21  21  21  21  21  21  21  21  21  21  21
            21  21  21  21  21  21  21  21  21  21  21  21  21  21  21  21  21  21  21
            21  21  21  21  21  21  21  21  21  21  21  21  21  21  21  21  21  21  21
            21  21  21  21  21  21  21  21  21  21  21  21  21  21  21  21  21  21  21
            21  21  21  21  21  21  21  21  21  21  21  21  21  21  21  21

           zoom flags : 
              lzoom   =  F  (T = zoom, F = global )
              lzoom_e =  F  (T = forced closed east  boundary)
              lzoom_w =  F  (T = forced closed west  boundary)
              lzoom_s =  F  (T = forced closed South boundary)
              lzoom_n =  F  (T = forced closed North boundary)

 dom_init : domain initialization
 ~~~~~~~~

 dom_nam  : domain initialization through namelist read
 ~~~~~~~ 
    Namelist namrun
       job number                      nn_no      =            0
       experiment name for output      cn_exp     = ORCA2                                                                                                                                                                                                                                                           
       file prefix restart input       cn_ocerst_in= restart                                                                                                                                                                                                                                                         
       restart input directory         cn_ocerst_indir= .                                                                                                                                                                                                                                                               
       file prefix restart output      cn_ocerst_out= restart                                                                                                                                                                                                                                                         
       restart output directory        cn_ocerst_outdir= .                                                                                                                                                                                                                                                               
       restart logical                 ln_rstart  =  T
       start with forward time step    nn_euler   =            1
       control of time step            nn_rstctl  =            2
       number of the first time step   nn_it000   =            1
       number of the last time step    nn_itend   =         5475
       initial calendar date aammjj    nn_date0   =     17500101
       leap year calendar (0/1)        nn_leapy   =            0
       initial state output            nn_istate  =            0
       frequency of restart file       nn_stock   =         5475
       frequency of output file        nn_write   =         5475
       multi file dimgout              ln_dimgnnn =  F
       mask land points                ln_mskland =  F
       additional CF standard metadata ln_cfmeta  =  F
       overwrite an existing file      ln_clobber =  T
       NetCDF chunksize (bytes)        nn_chunksz =            0
    The IOIPSL calendar is "noleap", i.e. no leap year

    Namelist namdom : space & time domain
       flag read/compute bathymetry      nn_bathy     =            1
       Depth (if =0 bathy=jpkm1)         rn_bathy     =    0.0000000000000000     
       min depth of the ocean    (>0) or    rn_hmin   =   -3.0000000000000000     
       min number of ocean level (<0)       
       minimum thickness of partial      rn_e3zps_min =    20.000000000000000       (m)
          step level                     rn_e3zps_rat =   0.10000000000000001     
       create mesh/mask file(s)          nn_msh       =            0
            = 0   no file created           
            = 1   mesh_mask                 
            = 2   mesh and mask             
            = 3   mesh_hgr, msh_zgr and mask
       ocean time step                       rn_rdt    =    5760.0000000000000     
       asselin time filter parameter         rn_atfp   =   0.10000000000000001     
       acceleration of converge              nn_acc    =            0
         nn_acc=1: surface tracer rdt        rn_rdtmin =    28800.000000000000     
                   bottom  tracer rdt        rdtmax    =    28800.000000000000     
                   depth of transition       rn_rdth   =    800.00000000000000     
       suppression of closed seas (=0)       nn_closea =            0
       online coarsening of dynamical fields ln_crs    =  F
       type of horizontal mesh jphgr_msh           =            0
       longitude of first raw and column T-point ppglam0 =    999999.00000000000     
       latitude  of first raw and column T-point ppgphi0 =    999999.00000000000     
       zonal      grid-spacing (degrees) ppe1_deg        =    999999.00000000000     
       meridional grid-spacing (degrees) ppe2_deg        =    999999.00000000000     
       zonal      grid-spacing (degrees) ppe1_m          =    999999.00000000000     
       meridional grid-spacing (degrees) ppe2_m          =    999999.00000000000     
       ORCA r4, r2 and r05 coefficients  ppsur           =   -4762.9614354630003     
                                         ppa0            =    255.58049070440001     
                                         ppa1            =    245.58132232489999     
                                         ppkth           =    21.433361979379999     
                                         ppacr           =    3.0000000000000000     
       Minimum vertical spacing ppdzmin                  =    999999.00000000000     
       Maximum depth pphmax                              =    999999.00000000000     
       Use double tanf function for vertical coordinates ldbletanh =  F
       Double tanh function parameters ppa2              =    999999.00000000000     
                                       ppkth2            =    999999.00000000000     
                                       ppacr2            =    999999.00000000000     

    Namelist namcla
       cross land advection                 nn_cla    =            0

 dom_clo : closed seas 
 ~~~~~~~

 dom_hgr : define the horizontal mesh from ithe following par_oce parameters 
 ~~~~~~~      type of horizontal mesh           jphgr_msh =            0
              position of the first row and     ppglam0  =    999999.00000000000     
              column grid-point (degrees)       ppgphi0  =    999999.00000000000     
              zonal      grid-spacing (degrees) ppe1_deg =    999999.00000000000     
              meridional grid-spacing (degrees) ppe2_deg =    999999.00000000000     
              zonal      grid-spacing (meters)  ppe1_m   =    999999.00000000000     
              meridional grid-spacing (meters)  ppe2_m   =    999999.00000000000     

           curvilinear coordinate on the sphere read in "coordinate" file

 hgr_read : read the horizontal coordinates
 ~~~~~~~~      jpiglo =          182  jpjglo =          149  jpk =           31
                     iom_nf90_open ~~~ open existing file: coordinates.nc in READ mode
                    ---> coordinates.nc OK

 ===>>> : W A R N I N G
         ===============

           iom_get_123d, file: coordinates.nc, var: glamt
 2D array but 3 spatial dimensions for the data...
 As the size of the z dimension is 1 and as we try to read the first record, 
 we accept this case, even if there is a possible mix-up between z and time dimension
           read glamt (rec:      1) in coordinates.nc ok

 ===>>> : W A R N I N G
         ===============

           iom_get_123d, file: coordinates.nc, var: glamu
 2D array but 3 spatial dimensions for the data...
 As the size of the z dimension is 1 and as we try to read the first record, 
 we accept this case, even if there is a possible mix-up between z and time dimension
           read glamu (rec:      1) in coordinates.nc ok

 ===>>> : W A R N I N G
         ===============

           iom_get_123d, file: coordinates.nc, var: glamv
 2D array but 3 spatial dimensions for the data...
 As the size of the z dimension is 1 and as we try to read the first record, 
 we accept this case, even if there is a possible mix-up between z and time dimension
           read glamv (rec:      1) in coordinates.nc ok

 ===>>> : W A R N I N G
         ===============

           iom_get_123d, file: coordinates.nc, var: glamf
 2D array but 3 spatial dimensions for the data...
 As the size of the z dimension is 1 and as we try to read the first record, 
 we accept this case, even if there is a possible mix-up between z and time dimension
           read glamf (rec:      1) in coordinates.nc ok

 ===>>> : W A R N I N G
         ===============

           iom_get_123d, file: coordinates.nc, var: gphit
 2D array but 3 spatial dimensions for the data...
 As the size of the z dimension is 1 and as we try to read the first record, 
 we accept this case, even if there is a possible mix-up between z and time dimension
           read gphit (rec:      1) in coordinates.nc ok

 ===>>> : W A R N I N G
         ===============

           iom_get_123d, file: coordinates.nc, var: gphiu
 2D array but 3 spatial dimensions for the data...
 As the size of the z dimension is 1 and as we try to read the first record, 
 we accept this case, even if there is a possible mix-up between z and time dimension
           read gphiu (rec:      1) in coordinates.nc ok

 ===>>> : W A R N I N G
         ===============

           iom_get_123d, file: coordinates.nc, var: gphiv
 2D array but 3 spatial dimensions for the data...
 As the size of the z dimension is 1 and as we try to read the first record, 
 we accept this case, even if there is a possible mix-up between z and time dimension
           read gphiv (rec:      1) in coordinates.nc ok

 ===>>> : W A R N I N G
         ===============

           iom_get_123d, file: coordinates.nc, var: gphif
 2D array but 3 spatial dimensions for the data...
 As the size of the z dimension is 1 and as we try to read the first record, 
 we accept this case, even if there is a possible mix-up between z and time dimension
           read gphif (rec:      1) in coordinates.nc ok

 ===>>> : W A R N I N G
         ===============

           iom_get_123d, file: coordinates.nc, var: e1t
 2D array but 3 spatial dimensions for the data...
 As the size of the z dimension is 1 and as we try to read the first record, 
 we accept this case, even if there is a possible mix-up between z and time dimension
           read e1t (rec:      1) in coordinates.nc ok

 ===>>> : W A R N I N G
         ===============

           iom_get_123d, file: coordinates.nc, var: e1u
 2D array but 3 spatial dimensions for the data...
 As the size of the z dimension is 1 and as we try to read the first record, 
 we accept this case, even if there is a possible mix-up between z and time dimension
           read e1u (rec:      1) in coordinates.nc ok

 ===>>> : W A R N I N G
         ===============

           iom_get_123d, file: coordinates.nc, var: e1v
 2D array but 3 spatial dimensions for the data...
 As the size of the z dimension is 1 and as we try to read the first record, 
 we accept this case, even if there is a possible mix-up between z and time dimension
           read e1v (rec:      1) in coordinates.nc ok

 ===>>> : W A R N I N G
         ===============

           iom_get_123d, file: coordinates.nc, var: e1f
 2D array but 3 spatial dimensions for the data...
 As the size of the z dimension is 1 and as we try to read the first record, 
 we accept this case, even if there is a possible mix-up between z and time dimension
           read e1f (rec:      1) in coordinates.nc ok

 ===>>> : W A R N I N G
         ===============

           iom_get_123d, file: coordinates.nc, var: e2t
 2D array but 3 spatial dimensions for the data...
 As the size of the z dimension is 1 and as we try to read the first record, 
 we accept this case, even if there is a possible mix-up between z and time dimension
           read e2t (rec:      1) in coordinates.nc ok

 ===>>> : W A R N I N G
         ===============

           iom_get_123d, file: coordinates.nc, var: e2u
 2D array but 3 spatial dimensions for the data...
 As the size of the z dimension is 1 and as we try to read the first record, 
 we accept this case, even if there is a possible mix-up between z and time dimension
           read e2u (rec:      1) in coordinates.nc ok

 ===>>> : W A R N I N G
         ===============

           iom_get_123d, file: coordinates.nc, var: e2v
 2D array but 3 spatial dimensions for the data...
 As the size of the z dimension is 1 and as we try to read the first record, 
 we accept this case, even if there is a possible mix-up between z and time dimension
           read e2v (rec:      1) in coordinates.nc ok

 ===>>> : W A R N I N G
         ===============

           iom_get_123d, file: coordinates.nc, var: e2f
 2D array but 3 spatial dimensions for the data...
 As the size of the z dimension is 1 and as we try to read the first record, 
 we accept this case, even if there is a possible mix-up between z and time dimension
           read e2f (rec:      1) in coordinates.nc ok
                     iom_close ~~~ close file: coordinates.nc ok

              orca_r2: Gibraltar    : e2u reduced to 20 km

              orca_r2: Bab el Mandeb: e2u reduced to 30 km
                                      e1v reduced to 18 km

              orca_r2: Danish Straits : e2u reduced to 10 km

 dom_zgr : vertical coordinate
 ~~~~~~~
           Namelist namzgr : set vertical coordinate
              z-coordinate - full steps      ln_zco    =  F
              z-coordinate - partial steps   ln_zps    =  T
              s- or hybrid z-s-coordinate    ln_sco    =  F
              ice shelf cavities             ln_isfcav =  F

     zgr_z   : Reference vertical z-coordinates
     ~~~~~~~
            Value of coefficients for vertical mesh:
                  zsur =   -4762.9614354630003     
                  za0  =    255.58049070440001     
                  za1  =    245.58132232489999     
                  zkth =    21.433361979379999     
                  zacr =    3.0000000000000000     

               Reference z-coordinate depth and scale factors:
          level  gdept_1d  gdepw_1d  e3t_1d   e3w_1d  
             1     5.00     0.00    10.00    10.00
             2    15.00    10.00    10.00    10.00
             3    25.00    20.00    10.00    10.00
             4    35.01    30.00    10.01    10.00
             5    45.01    40.01    10.01    10.01
             6    55.03    50.02    10.02    10.02
             7    65.06    60.04    10.04    10.03
             8    75.13    70.09    10.09    10.06
             9    85.25    80.18    10.17    10.12
            10    95.49    90.35    10.33    10.24
            11   105.97   100.69    10.65    10.47
            12   116.90   111.36    11.27    10.91
            13   128.70   122.65    12.47    11.77
            14   142.20   135.16    14.78    13.43
            15   158.96   150.03    19.23    16.65
            16   181.96   169.42    27.66    22.78
            17   216.65   197.37    43.26    34.30
            18   272.48   241.13    70.88    55.21
            19   364.30   312.74   116.11    90.99
            20   511.53   429.72   181.55   146.43
            21   732.20   611.89   261.03   220.35
            22  1033.22   872.87   339.39   301.42
            23  1405.70  1211.59   402.26   373.31
            24  1830.89  1612.98   444.87   426.00
            25  2289.77  2057.13   470.55   459.47
            26  2768.24  2527.22   484.95   478.83
            27  3257.48  3011.90   492.70   489.44
            28  3752.44  3504.46   496.78   495.07
            29  4250.40  4001.16   498.90   498.02
            30  4749.91  4500.02   500.00   499.54
            31  5250.23  5000.00   500.56   500.33

     zgr_bat : defines level and meter bathymetry
     ~~~~~~~
                     iom_nf90_open ~~~ open existing file: bathy_meter.nc in READ mode
                    ---> bathy_meter.nc OK

 ===>>> : W A R N I N G
         ===============

           iom_get_123d, file: bathy_meter.nc, var: Bathymetry
 2D array but 3 spatial dimensions for the data...
 As the size of the z dimension is 1 and as we try to read the first record, 
 we accept this case, even if there is a possible mix-up between z and time dimension
           read Bathymetry (rec:      1) in bathy_meter.nc ok
                     iom_close ~~~ close file: bathy_meter.nc ok

       orca_r2: Gibraltar strait open at i=         140  j=         102

              orca_r2: Bab el Mandeb strait open at i=         160  j=          88
 Minimum ocean depth:    30.003215807563720       minimum number of ocean levels :            3

     zgr_zps : z-coordinate with partial steps
     ~~~~~~~ 
               mbathy is recomputed : bathy_level file is NOT used

     zgr_bat_ctl : check the bathymetry
     ~~~~~~~~~~~

                    suppress isolated ocean grid points
                    -----------------------------------
              147  ocean grid points suppressed
  mbathy set to 0 along east and west boundary: nperio =            0
  maximum number of ocean level =           24  < jpk-1
  you can decrease jpk to           25

     zgr_bot_level : ocean bottom k-index of T-, U-, V- and W-levels 
     ~~~~~~~~~~~~~

     zgr_top_level : ocean top k-index of T-, U-, V- and W-levels 
     ~~~~~~~~~~~~~

 dommsk : ocean mask 
 ~~~~~~
    Namelist namlbc
       lateral momentum boundary cond.    rn_shlat  =    1.6000000000000001     
       consistency with analytical form   ln_vorlat =  F
    ocean lateral  partial-slip 

 dom_stp : time stepping setting
 ~~~~~~~
                synchronous time stepping
                dynamics and tracer time step =    1.6000000000000001       hours
  
 istate_ini : Initialization of the dynamics and tracers
 ~~~~~~~~~~

 dta_tsd_init : Temperature & Salinity data 
 ~~~~~~~~~~~~ 
    Namelist namtsd
       Initialisation of ocean T & S with T &S input data   ln_tsd_init   =  F
       damping of ocean T & S toward T &S input data        ln_tsd_tradmp =  F


    T & S data not used

 rst_read : read oce NetCDF restart file
 ~~~~~~~~
                     iom_nf90_open ~~~ open existing file: ./restart_0000.nc in READ mode
                    ---> ./restart_0000.nc OK
           read ub (rec:      1) in ./restart_0000.nc ok
           read vb (rec:      1) in ./restart_0000.nc ok
           read tb (rec:      1) in ./restart_0000.nc ok
           read sb (rec:      1) in ./restart_0000.nc ok
           read rotb (rec:      1) in ./restart_0000.nc ok
           read hdivb (rec:      1) in ./restart_0000.nc ok
           read sshb (rec:      1) in ./restart_0000.nc ok
           read un (rec:      1) in ./restart_0000.nc ok
           read vn (rec:      1) in ./restart_0000.nc ok
           read tn (rec:      1) in ./restart_0000.nc ok
           read sn (rec:      1) in ./restart_0000.nc ok
           read sshn (rec:      1) in ./restart_0000.nc ok
           read rotn (rec:      1) in ./restart_0000.nc ok
           read hdivn (rec:      1) in ./restart_0000.nc ok
           read rhop (rec:      1) in ./restart_0000.nc ok
  *** Info read in restart : 
    previous time-step                               :      1478250
  *** restart option
  nrstdt = 2 : calendar parameters read in restart

  *** Info used values : 
    date ndastp                                      :     20191231
    number of elapsed days since the begining of run :    98550.000000000000     

 =======>> 1/2 time step before the start of the run DATE Y/M/D =   2019/12/31  nsec_day:   83520  nsec_week:   83520
======>> time-step = 1478251      New day, DATE Y/M/D = 2020/01/01      nday_year = 001
         nsec_year =     2880   nsec_month =    2880   nsec_day =  2880
   nsec_week =    89280

 sbc_init : surface boundary condition setting
 ~~~~~~~~ 
         Namelist namsbc (partly overwritten with CPP key setting)
            frequency update of sbc (and ice)             nn_fsbc     =            5
            Type of sbc : 
               analytical formulation                     ln_ana      =  F
               flux       formulation                     ln_flx      =  F
               CLIO bulk  formulation                     ln_blk_clio =  T
               CORE bulk  formulation                     ln_blk_core =  F
               MFS  bulk  formulation                     ln_blk_mfs  =  F
               ocean-atmosphere coupled formulation       ln_cpl      =  F
               forced-coupled mixed formulation           ln_mixcpl   =  F
               OASIS coupling (with atm or sas)           lk_oasis    =  F
               components of your executable              nn_components =            0
               Multicategory heat flux formulation (LIM3) nn_limflx   =           -1
            Misc. options of sbc : 
               Patm gradient added in ocean & ice Eqs.    ln_apr_dyn  =  F
               ice management in the sbc (=0/1/2/3)       nn_ice      =            2
               ice-ocean embedded/levitating (=0/1/2)     nn_ice_embd =            1
               daily mean to diurnal cycle qsr            ln_dm2dc    =  F
               runoff / runoff mouths                     ln_rnf      =  T
               iceshelf formulation                       nn_isf      =            0
               Sea Surface Restoring on SST and/or SSS    ln_ssr      =  F
               FreshWater Budget control  (=0/1/2)        nn_fwb      =            2
               closed sea (=0/1) (set in namdom)          nn_closea   =            0
               n. of iterations if land-sea-mask applied  nn_lsm      =            0
               Use of per-category fluxes (nn_limflx = -1) 

               CLIO bulk formulation

 sbc_ssm : sea surface mean fields
 ~~~~~~~ 
           read ssu_m (rec:      1) in ./restart_0000.nc ok
           read ssv_m (rec:      1) in ./restart_0000.nc ok
           read sst_m (rec:      1) in ./restart_0000.nc ok
           read sss_m (rec:      1) in ./restart_0000.nc ok
           read ssh_m (rec:      1) in ./restart_0000.nc ok
           read frq_m (rec:      1) in ./restart_0000.nc ok
 ~~~~~~~   mean fields read in the ocean restart file

 sbc_rnf : runoff 
 ~~~~~~~ 
    Namelist namsbc_rnf
       specific river mouths treatment            ln_rnf_mouth =  T
       river mouth additional Kz                  rn_avt_rnf   =    1.0000000000000000E-003
       depth of river mouth additional mixing     rn_hrnf      =    15.000000000000000     
       multiplicative factor for runoff           rn_rfact     =    1.0000000000000000     

           runoffs inflow read in a file

 sbc_rnf_init : read runoffs data
 ~~~~~~~~~~~~
           namsbc_rnf Namelist
           list of files and frequency (>0: in hours ; <0 in months)
                root filename: ./runoff_core_monthly variable name: sorunoff
                frequency:   -1.0000000000000000       time interp:  T  climatology:  T  weights    :  pairing    :  data type: yearly   land/sea mask:

           Specific treatment used in vicinity of river mouths :
              - Increase Kz in surface layers (if rn_hrnf > 0 )
                by    1.0000000000000000E-003  m2/s  over            2  w-levels
              - set to zero SSS damping       (if ln_ssr=T)
              - mixed upstream-centered       (if ln_traadv_cen2=T)

 rnf_mouth : river mouth mask
 ~~~~~~~~~ 
                     iom_nf90_open ~~~ open existing file: ./runoff_core_monthly.nc in READ mode
                    ---> ./runoff_core_monthly.nc OK
           read socoefr0 (rec:      1) in ./runoff_core_monthly.nc ok
                     iom_close ~~~ close file: ./runoff_core_monthly.nc ok

 dyn_nept_init : Simplified Neptune module
 ~~~~~~~~~~~~~
  -->   Reading namelist namdyn_nept parameters:
        ln_neptsimp          =  F


 zdf_init: vertical physics
 ~~~~~~~~
    Namelist namzdf : set vertical mixing mixing parameters
       vertical eddy viscosity             rn_avm0   =    1.2000000000000000E-004
       vertical eddy diffusivity           rn_avt0   =    1.2000000000000000E-005
       constant background or profile      nn_avb    =            0
       horizontal variation for avtb       nn_havtb  =            0
       time splitting / backward scheme    ln_zdfexp =  F
       number of time step                 nn_zdfexp =            3
       enhanced vertical diffusion         ln_zdfevd =  T
          applied on momentum (=1/0)       nn_evdm   =            0
       vertical coefficient for evd        rn_avevd  =    100.00000000000000     
       non-penetrative convection (npc)    ln_zdfnpc =  F
       npc call  frequency                 nn_npc    =            1
       npc print frequency                 nn_npcp   =          365

    vertical mixing option :
       TKE dependent eddy coefficients

    convection :
       use enhanced vertical dif. scheme
       use the 1.5 turbulent closure

 zdf_bfr_init : momentum bottom friction
 ~~~~~~~~~~~~~
    Namelist nam_bfr : set bottom friction parameters
       linear botton friction
       bottom friction coef.   rn_bfri1  =    4.0000000000000002E-004
       implicit bottom friction switch                ln_bfrimp  =  T

 zdf_tke_init : tke turbulent closure scheme - initialisation
 ~~~~~~~~~~~~
    Namelist namzdf_tke : set tke mixing parameters
       coef. to compute avt                        rn_ediff  =   0.17999999999999999     
       Kolmogoroff dissipation coef.               rn_ediss  =   0.69999999999999996     
       tke surface input coef.                     rn_ebb    =    4.7500000000000000     
       minimum value of tke                        rn_emin   =    9.9999999999999995E-007
       surface minimum value of tke                rn_emin0  =    1.0000000000000000E-004
       background shear (>0)                       rn_bshear =    9.9999999999999995E-021
       mixing length type                          nn_mxl    =            2
       prandl number flag                          nn_pdl    =            1
       surface mixing length = F(stress) or not    ln_mxl0   =  T
       surface  mixing length minimum value        rn_mxl0   =    4.0000000000000001E-002
       flag to take into acc.  Langmuir circ.      ln_lc     =  T
       coef to compute verticla velocity of LC     rn_lc     =   0.14999999999999999     
       test param. to add tke induced by wind      nn_etau   =            1
       flag for computation of exp. tke profile    nn_htau   =            1
       fraction of en which pene. the thermocline  rn_efr    =    5.5000000000000000E-002

       critical Richardson nb with your parameters  ri_cri =   0.33962264150943394     
    use a surface mixing length = F(stress) :   set rn_mxl0 = rmxl_min
           read en (rec:      1) in ./restart_0000.nc ok
           read avt (rec:      1) in ./restart_0000.nc ok
           read avm (rec:      1) in ./restart_0000.nc ok
           read avmu (rec:      1) in ./restart_0000.nc ok
           read avmv (rec:      1) in ./restart_0000.nc ok
           read dissl (rec:      1) in ./restart_0000.nc ok

 zdf_tmx_init : tidal mixing
 ~~~~~~~~~~~~
    Namelist namzdf_tmx : set tidal mixing parameters
       Vertical decay scale for turbulence   =    600.00000000000000     
       Brunt-Vaisala frequency threshold     =    1.0000000000000000E-008
       Tidal dissipation efficiency          =   0.33300000000000002     
       Mixing efficiency                     =   0.23999999999999999     
       ITF specific parameterisation         =  T
       ITF tidal dissipation efficiency      =    1.0000000000000000     
                     iom_nf90_open ~~~ open existing file: mask_itf.nc in READ mode
                    ---> mask_itf.nc OK
           read tmaskitf (rec:      1) in mask_itf.nc ok
                     iom_close ~~~ close file: mask_itf.nc ok
                     iom_nf90_open ~~~ open existing file: M2rowdrg.nc in READ mode
                    ---> M2rowdrg.nc OK
           read field (rec:      1) in M2rowdrg.nc ok
                     iom_close ~~~ close file: M2rowdrg.nc ok
                     iom_nf90_open ~~~ open existing file: K1rowdrg.nc in READ mode
                    ---> K1rowdrg.nc OK
           read field (rec:      1) in K1rowdrg.nc ok
                     iom_close ~~~ close file: K1rowdrg.nc ok

 zdf_ddm : double diffusive mixing
 ~~~~~~~
    Namelist namzdf_ddm : set dd mixing parameter
       maximum avs for dd mixing      rn_avts   =    1.0000000000000000E-004
       heat/salt buoyancy flux ratio  rn_hsbfr  =    1.6000000000000001     

 ldf_tra_init : lateral tracer physics
 ~~~~~~~~~~~~ 
    Namelist namtra_ldf : lateral mixing parameters (type, direction, coefficients)
       laplacian operator            ln_traldf_lap   =  T
       bilaplacian operator          ln_traldf_bilap =  F
       iso-level                     ln_traldf_level =  F
       horizontal (geopotential)     ln_traldf_hor   =  F
       iso-neutral                   ln_traldf_iso   =  T
       iso-neutral (Griffies)        ln_traldf_grif  =  F
       Griffies strmfn diagnostics   ln_traldf_gdia  =  F
       lateral eddy diffusivity      rn_aht_0        =    2200.0000000000000     
       background hor. diffusivity   rn_ahtb_0       =    0.0000000000000000     
       eddy induced velocity coef.   rn_aeiv_0       =    2000.0000000000000     
       maximum isoppycnal slope      rn_slpmax       =    1.0000000000000000E-002
       pure lateral mixing in ML     ln_triad_iso    =  F
       lateral mixing on bottom      ln_botmix_grif  =  F

           tracer mixing coef. = F( latitude, longitude)
           harmonic tracer diffusion (default)

  ldf_tra_c2d : 2D eddy diffusivity and eddy
  ~~~~~~~~~~~   --  induced velocity coefficients
                ORCA R2 or R4 case
                Constant values used for eddy diffusivity coefficients
                Variation lat/lon only for eddy induced velocity coefficients

 ldf_dyn : lateral momentum physics
 ~~~~~~~
    Namelist namdyn_ldf : set lateral mixing parameters
       laplacian operator                      ln_dynldf_lap   =  T
       bilaplacian operator                    ln_dynldf_bilap =  F
       iso-level                               ln_dynldf_level =  F
       horizontal (geopotential)               ln_dynldf_hor   =  T
       iso-neutral                             ln_dynldf_iso   =  F
       horizontal laplacian eddy viscosity     rn_ahm_0_lap    =    40000.000000000000     
       background viscosity                    rn_ahmb_0       =    0.0000000000000000     
       horizontal bilaplacian eddy viscosity   rn_ahm_0_blp    =    0.0000000000000000     
       upper limit for laplacian eddy visc     rn_ahm_m_lap    =    40000.000000000000     
       upper limit for bilap eddy viscosity    rn_ahm_m_blp    =   -1000000000000.0000     
    momentum mixing coef. = F( latitude, longitude, depth)
    harmonic momentum diff. (default)

 ldf_dyn_c3d : 3D lateral eddy viscosity coefficient
 ~~~~~~~~~~~
               laplacian operator: ahm proportional to e1
               maximum grid-spacing =    222397.84689709079       maximum value for ahm =    40000.000000000000     

          ahm profile : 

  jk      ahm         depth t-level 
     1      1.0000      4.9999
     2      0.9994     15.0003
     3      0.9989     25.0018
     4      0.9982     35.0054
     5      0.9976     45.0133
     6      0.9970     55.0295
     7      0.9963     65.0618
     8      0.9956     75.1255
     9      0.9948     85.2504
    10      0.9940     95.4943
    11      0.9932    105.9699
    12      0.9923    116.8962
    13      0.9913    128.6979
    14      0.9901    142.1952
    15      0.9885    158.9606
    16      0.9861    181.9628
    17      0.9821    216.6479
    18      0.9745    272.4767
    19      0.9583    364.3030
    20      0.9192    511.5348
    21      0.8191    732.2009
    22      0.6067   1033.2173
    23      0.3759   1405.6975
    24      0.2766   1830.8850
    25      0.2544   2289.7679
    26      0.2506   2768.2423
    27      0.2501   3257.4789
    28      0.2500   3752.4422
    29      0.2500   4250.4012
    30      0.2500   4749.9133
    31      0.2500   5250.2266

          ahm profile : 

  jk      ahm         depth t-level 
     1      1.0000      4.9999
     2      0.9994     15.0003
     3      0.9989     25.0018
     4      0.9982     35.0054
     5      0.9976     45.0133
     6      0.9970     55.0295
     7      0.9963     65.0618
     8      0.9956     75.1255
     9      0.9948     85.2504
    10      0.9940     95.4943
    11      0.9932    105.9699
    12      0.9923    116.8962
    13      0.9913    128.6979
    14      0.9901    142.1952
    15      0.9885    158.9606
    16      0.9861    181.9628
    17      0.9821    216.6479
    18      0.9745    272.4767
    19      0.9583    364.3030
    20      0.9192    511.5348
    21      0.8191    732.2009
    22      0.6067   1033.2173
    23      0.3759   1405.6975
    24      0.2766   1830.8850
    25      0.2544   2289.7679
    26      0.2506   2768.2423
    27      0.2501   3257.4789
    28      0.2500   3752.4422
    29      0.2500   4250.4012
    30      0.2500   4749.9133
    31      0.2500   5250.2266

               ORCA R1, R2 or R4: overwrite the previous definition of ahm
               =================

 ldfdyn_c3d_orca : 3D eddy viscosity coefficient
 ~~~~~~~~~~~~~~~
         orca R1, R2 or R4 configuration: reduced in the surface Eq. strip 
                     iom_nf90_open ~~~ open existing file: ahmcoef.nc in READ mode
                    ---> ahmcoef.nc OK
           read icof (rec:      1) in ahmcoef.nc ok
                     iom_close ~~~ close file: ahmcoef.nc ok

          1D zcoef array 
          ~~~~~~~~~~~~~~ 

     jk        zcoef 
      1        1.000
      2        1.000
      3        1.000
      4        1.000
      5        1.000
      6        1.000
      7        1.000
      8        1.000
      9        1.000
     10        1.000
     11        1.000
     12        1.000
     13        1.000
     14        1.000
     15        1.000
     16        1.000
     17        1.000
     18        1.000
     19        1.000
     20        1.000
     21        1.000
     22        2.000
     23        3.000
     24        5.000
     25        7.000
     26        9.000
     27       10.000
     28       10.000
     29       10.000
     30       10.000
     31       10.000

          3D ahm1 array (k=1)


        1    21
  21  40.00 40.00
   1   0.00  0.00

          3D ahm2 array (k=1)


        1    21
  21  40.00 40.00
   1  40.00 40.00

          3D ahm2 array (k=jpk)


        1    21
  21  40.00 40.00
   1  40.00 40.00

 ldf_slp_init : direction of lateral mixing
 ~~~~~~~~~~~~

 tra_qsr_init : penetration of the surface solar radiation
 ~~~~~~~~~~~~
    Namelist namtra_qsr : set the parameter of penetration
       Light penetration (T) or not (F)         ln_traqsr  =  T
       RGB (Red-Green-Blue) light penetration   ln_qsr_rgb =  F
       2 band               light penetration   ln_qsr_2bd =  F
       bio-model            light penetration   ln_qsr_bio =  F
       PlankTOM model       light penetration   ln_qsr_sms =  T
       light penetration for ice-model LIM3     ln_qsr_ice =  T
       RGB : Chl data (=1) or cst value (=0)    nn_chldta  =            1
       RGB & 2 bands: fraction of light (rn_si1)    rn_abs =   0.57999999999999996     
       RGB & 2 bands: shortess depth of extinction  rn_si0 =   0.34999999999999998     
       2 bands: longest depth of extinction         rn_si1 =    24.399999999999999     

          PlankTOM model light penetration
           read fraqsr_1lev (rec:      1) in ./restart_0000.nc ok

 tra_bbc : Bottom Boundary Condition (bbc), apply a Geothermal heating
 ~~~~~~~   
    Namelist nambbc : set bbc parameters
       Apply a geothermal heating at ocean bottom   ln_trabbc     =  T
       type of geothermal flux                      nn_geoflx     =            2
       Constant geothermal flux value               rn_geoflx_cst =    8.6400000000000005E-002

       *** variable geothermal heat flux

 tra_bbc_init : bottom temperature boundary condition
 ~~~~~~~~~~~~
           nambbc Namelist
           list of files and frequency (>0: in hours ; <0 in months)
                root filename: ./geothermal_heating.nc variable name: heatflow
                frequency:   -12.000000000000000       time interp:  F  climatology:  T  weights    :  pairing    :  data type: yearly   land/sea mask:
                     iom_nf90_open ~~~ open existing file: ./geothermal_heating.nc in READ mode
                    ---> ./geothermal_heating.nc OK
           read heatflow (rec:      1) in ./geothermal_heating.nc ok
fld_read: var heatflow kt =  1478251 ( 365.0333 days), Y/M/D = 2020/01/01, record:   0001 (days  365.0000 <->  730.0000)

 tra_bbl_init : bottom boundary layer initialisation
 ~~~~~~~~~~~~
        Namelist nambbl : set bbl parameters
           diffusive bbl (=1)   or not (=0)    nn_bbl_ldf =            1
           advective bbl (=1/2) or not (=0)    nn_bbl_adv =            0
           diffusive bbl coefficient           rn_ahtbbl  =    1000.0000000000000       m2/s
           advective bbl coefficient           rn_gambbl  =    10.000000000000000       s

 tra_dmp_init : T and S newtonian relaxation
 ~~~~~~~
    Namelist namtra_dmp : set relaxation parameters
       Apply relaxation   or not       ln_tradmp =  F
       mixed layer damping option      nn_zdmp   =            0
       Damping file name               cn_resto  = resto.nc                                                                                                                                                                                                


 tra_adv_init : choice/control of the tracer advection scheme
 ~~~~~~~~~~~
    Namelist namtra_adv : chose a advection scheme for tracers
       2nd order advection scheme     ln_traadv_cen2    =  F
       TVD advection scheme           ln_traadv_tvd     =  T
       MUSCL  advection scheme        ln_traadv_muscl   =  F
       MUSCL2 advection scheme        ln_traadv_muscl2  =  F
       UBS    advection scheme        ln_traadv_ubs     =  F
       QUICKEST advection scheme      ln_traadv_qck     =  F
       upstream scheme within muscl   ln_traadv_msc_ups =  F
       TVD advection scheme with zts  ln_traadv_tvd_zts =  F

          TVD       scheme is used

 tra_adv_mle_init : mixed layer eddy (MLE) advection acting on tracers
 ~~~~~~~~~~~~~~~~
    Namelist namtra_adv_mle : mixed layer eddy advection on tracers
       use mixed layer eddy (MLE, i.e. Fox-Kemper param) (T/F)      ln_mle    =  T
       MLE type: =0 standard Fox-Kemper ; =1 new formulation        nn_mle    =            1
       magnitude of the MLE (typical value: 0.06 to 0.08)           rn_ce     =    5.9999999999999998E-002
       scale of ML front (ML radius of deformation) (rn_mle=0)      rn_lf     =    5000.0000000000000      m
       maximum time scale of MLE                    (rn_mle=0)      rn_time   =    172800.00000000000      s
       reference latitude (degrees) of MLE coef.    (rn_mle=1)      rn_lat    =    20.000000000000000      deg
       space interp. of MLD at u-(v-)pts (0=min,1=averaged,2=max)   nn_mld_uv =            0
       =1 no MLE in case of convection ; =0 always MLE              nn_conv   =            0
       Density difference used to define ML for FK              rn_rho_c_mle  =    1.0000000000000000E-002

    Mixed Layer Eddy induced transport added to tracer advection
    New formulation

       ML buoyancy criteria =    9.5581384015594543E-005  m/s2 
       associated ML density criteria defined in zdfmxl =    1.0000000000000000E-002 kg/m3

 tra_ldf_init : lateral tracer diffusive operator
 ~~~~~~~~~~~
    Namelist namtra_ldf already read in ldftra module
    see ldf_tra_init report for lateral mixing parameters


           Rotated laplacian operator

 tra:ldf_ano : lateral diffusion acting on the full fields
 ~~~~~~~~~~~

 tra_zdf_init : vertical tracer physics scheme
 ~~~~~~~~~~~
               Implicit (euler backward) scheme

 dyn_adv_init : choice/control of the momentum advection scheme
 ~~~~~~~~~~~
        Namelist namdyn_adv : chose a advection formulation & scheme for momentum
           Vector/flux form (T/F)                           ln_dynadv_vec  =  T
           = 0 standard scheme  ; =1 Hollingsworth scheme   nn_dynkeg      =            0
           2nd order centred advection scheme               ln_dynadv_cen2 =  F
           3rd order UBS advection scheme                   ln_dynadv_ubs  =  F
           Sub timestepping of vertical advection           ln_dynzad_zts  =  F

          vector form : keg + zad + vor is used
 with Centered standard keg scheme

 dyn_vor_init : vorticity term : read namelist and control the consistency
 ~~~~~~~~~~~~
         Namelist namdyn_vor : choice of the vorticity term scheme
            energy    conserving scheme                ln_dynvor_ene =  F
            enstrophy conserving scheme                ln_dynvor_ens =  F
            mixed enstrophy/energy conserving scheme   ln_dynvor_mix =  F
            enstrophy and energy conserving scheme     ln_dynvor_een =  T
            enstrophy and energy conserving scheme (old) ln_dynvor_een_old=  F

          Vector form advection : vorticity = Coriolis + relative vorticity

          vorticity scheme : energy and enstrophy conserving scheme

 dyn_ldf_init : Choice of the lateral diffusive operator on dynamics
 ~~~~~~~~~~~
        Namelist nam_dynldf : set lateral mixing parameters (type, direction, coefficients)
           laplacian operator          ln_dynldf_lap   =  T
           bilaplacian operator        ln_dynldf_bilap =  F
           iso-level                   ln_dynldf_level =  F
           horizontal (geopotential)   ln_dynldf_hor   =  T
           iso-neutral                 ln_dynldf_iso   =  F

               laplacian operator

 dyn_hpg_init : hydrostatic pressure gradient initialisation
 ~~~~~~~~~~~~
    Namelist namdyn_hpg : choice of hpg scheme
       z-coord. - full steps                             ln_hpg_zco    =  F
       z-coord. - partial steps (interpolation)          ln_hpg_zps    =  T
       s-coord. (standard jacobian formulation)          ln_hpg_sco    =  F
       s-coord. (standard jacobian formulation) for isf  ln_hpg_isf    =  F
       s-coord. (Density Jacobian: Cubic polynomial)     ln_hpg_djc    =  F
       s-coord. (Pressure Jacobian: Cubic polynomial)    ln_hpg_prj    =  F
       time stepping: centered (F) or semi-implicit (T)  ln_dynhpg_imp =  F

 dyn_zdf_init : vertical dynamics physics scheme
 ~~~~~~~~~~~
               Implicit (euler backward) scheme

 dyn_spg_init : choice of the surface pressure gradient scheme
 ~~~~~~~~~~~
      Explicit free surface                  lk_dynspg_exp =  F
      Free surface with time splitting       lk_dynspg_ts  =  F
      Filtered free surface cst volume       lk_dynspg_flt =  T

      filtered free surface
      file   : solver.stat                                                                      open ok
      unit   =           20
      status = REPLACE
      form   = FORMATTED
      access = SEQUENTIAL


 solver_init : solver to compute the surface pressure gradient
 ~~~~~~~~~~~
    Namelist namsol : set solver parameters
       type of elliptic solver            nn_solv    =            1
       absolute/relative (0/1) precision  nn_sol_arp =            0
       minimum iterations for solver      nn_nmin    =          300
       maximum iterations for solver      nn_nmax    =          800
       frequency for test                 nn_nmod    =           10
       absolute precision of solver       rn_eps     =    9.9999999999999995E-007
       absolute precision for SOR solver  rn_resmax  =    1.0000000000000000E-010
       optimal coefficient of sor         rn_sor     =    1.9199999999999999     

    a preconditioned conjugate gradient solver is used

 icbini :   Namelist namberg ln_icebergs = F , NO icebergs used
 ~~~~~~~~ 

 ===>>> : W A R N I N G
         ===============

 W A R N I N G:  end of record or file while reading namelist namsto in configuration namelist iostat =   -1

 sto_par_init : stochastic parameterization
 ~~~~~~~~~~~~
    Namelist namsto : stochastic parameterization
       restart stochastic parameters           ln_rststo     =  F
       read seed of RNG from restart file      ln_rstseed    =  T
       suffix of sto restart name (input)      cn_storst_in  = restart_sto                     
       suffix of sto restart name (output)     cn_storst_out = restart_sto                     
       stochastic equation of state            ln_sto_eos    =  F
       number of degrees of freedom            nn_sto_eos    =            1
       random walk horz. std (in grid points)  rn_eos_stdxy  =    1.3999999999999999     
       random walk vert. std (in grid points)  rn_eos_stdz   =   0.69999999999999996     
       random walk tcor (in timesteps)         rn_eos_tcor   =    1440.0000000000000     
       order of autoregressive  processes      nn_eos_ord    =            1
       passes of Laplacian filter              nn_eos_flt    =            0
       limitation factor                       rn_eos_lim    =    2.0000000000000000     

    stochastic parameterization :

 trc_init : initial set up of the passive tracers
 ~~~~~~~
 trc_nam : read the passive tracer namelists
 ~~~~~~~B

  Namelist : namtrc_run
    time step freq. for passive tracer           nn_dttrc      =            1
    restart  for passive tracer                  ln_rsttr      =  T
    control of time step for passive tracer      nn_rsttr      =            0
    first time step for pass. trac.              nittrc000     =      1478251
    frequency of outputs for passive tracers     nn_writetrc   =         5475
    Use euler integration for TRC (y/n)          ln_top_euler  =  T
  

 trc_nam : read the passive tracer namelists
 ~~~~~~~A

 trc_nam_dia : read the passive tracer diagnostics options
 ~~~~~~~


  Namelist : namtrc_dia
     save additionnal diagnostics arrays         ln_diatrc   =  F
     save additionnal biology diagnostics arrays ln_diabio   =  F
     frequency of outputs for additional arrays  nn_writedia =            0
     frequency of outputs for biological trends  nn_writebio =            0
  

  trc_nam_trp: read namelist for tracer transport
  ~~~~~~~~~~~

 trc_adv_ctl : choice/control of the tracer advection scheme
 ~~~~~~~~~~~
    Namelist namtrc_adv : chose a advection scheme for tracers
       2nd order advection scheme     ln_trcadv_cen2   =  F
       TVD advection scheme           ln_trcadv_tvd    =  F
       MUSCL  advection scheme        ln_trcadv_muscl  =  T
       MUSCL2 advection scheme        ln_trcadv_muscl2 =  F
       UBS    advection scheme        ln_trcadv_ubs    =  F
       QUICKEST advection scheme      ln_trcadv_qck    =  F

 trc:ldf_ctl : lateral tracer diffusive operator
 ~~~~~~~~~~~
    Namelist namtrc_ldf : set lateral mixing parameters (type, direction, coefficients)
       laplacian operator                                 ln_trcldf_lap   =  T
       bilaplacian operator                               ln_trcldf_bilap =  F
       iso-level                                          ln_trcldf_level =  F
       horizontal (geopotential)                          ln_trcldf_hor   =  F
       iso-neutral                                        ln_trcldf_iso   =  T
       diffusivity coefficient                                 rn_ahtrc_0 =    2000.0000000000000     
       background hor. diffusivity                             rn_ahtrb_0 =    0.0000000000000000     

    Namelist namtrc_zdf : set vertical diffusion parameters
       time splitting / backward scheme ln_trczdf_exp =  F
       number of time step              nn_trczdf_exp =            3

    Namelist namtrc_rad : treatment of negative concentrations
       correct artificially negative concen. or not ln_trcrad =  T

 ===>>> : W A R N I N G
         ===============

 W A R N I N G:  end of record or file while reading namelist namtrc_dmp in configuration namelist iostat =   -1

 trc_dmp : Passive tracers newtonian damping
 ~~~~~~~
    Namelist namtrc_dmp : set damping parameter
       mixed layer damping option     nn_zdmp_tr =            1 (zoom: forced to 0)
       Restoration coeff file    cn_resto_tr = resto_tr.nc                                                                                                                                                                                             

  Namelist : namtrc
    Read inputs data from file (y/n)             ln_trcdta     =  F
    Damping of passive tracer (y/n)              ln_trcdmp     =  F
    Restoring of tracer on closed seas           ln_trcdmp_clo =  F
  
   tracer nb :            1     short name : Alkalini                      45
   tracer nb :            2     short name : O2                            45
   tracer nb :            3     short name : DIC                           45
   tracer nb :            4     short name : PIIC                          45
   tracer nb :            5     short name : NO3                           45
   tracer nb :            6     short name : Si                            45
   tracer nb :            7     short name : PO4                           45
   tracer nb :            8     short name : Fer                           45
   tracer nb :            9     short name : DOC                           45
   tracer nb :           10     short name : DSi                           45
   tracer nb :           11     short name : CaCO3                         45
   tracer nb :           12     short name : ARA                           45
   tracer nb :           13     short name : SFe                           45
   tracer nb :           14     short name : BFe                           45
   tracer nb :           15     short name : POC                           45
   tracer nb :           16     short name : GOC                           45
   tracer nb :           17     short name : BAC                           45
   tracer nb :           18     short name : PRO                           45
   tracer nb :           19     short name : PTE                           45
   tracer nb :           20     short name : MES                           45
   tracer nb :           21     short name : GEL                           45
   tracer nb :           22     short name : MAC                           45
   tracer nb :           23     short name : DIA                           45
   tracer nb :           24     short name : MIX                           45
   tracer nb :           25     short name : COC                           45
   tracer nb :           26     short name : PIC                           45
   tracer nb :           27     short name : PHA                           45
   tracer nb :           28     short name : FIX                           45
   tracer nb :           29     short name : DFe                           45
   tracer nb :           30     short name : NFe                           45
   tracer nb :           31     short name : CFe                           45
   tracer nb :           32     short name : PFe                           45
   tracer nb :           33     short name : HFe                           45
   tracer nb :           34     short name : FFe                           45
   tracer nb :           35     short name : DCHL                          45
   tracer nb :           36     short name : NCHL                          45
   tracer nb :           37     short name : CCHL                          45
   tracer nb :           38     short name : PCHL                          45
   tracer nb :           39     short name : HCHL                          45
   tracer nb :           40     short name : FCHL                          45
   tracer nb :           41     short name : BSi                           45
   tracer nb :           42     short name : GON                           45
   tracer nb :           43     short name : C11                           45
   tracer nb :           44     short name : B14B                          45
   tracer nb :           45     short name : C14B                          45
  

   Read a restart file for passive tracer : restart_trc


   All the passive tracers are initialised with constant values 


     Passive Tracer  time step    rdttrc  =    5760.0000000000000     


 trc_nam_ice : Read the namelist for trc_ice
 ~~~~~~~~~~~~~~~~~~~~~~~~~~~~~~~~~~~~~~~~~~~

 ===>>> : W A R N I N G
         ===============

 W A R N I N G:  end of record or file while reading namelist namtrc_ice in configuration namelist iostat =   -1
  
  Sea ice tracers option (nn_ice_tr) :           -1
  
           PISCES not used
           CFC not used

  trc_nam: Read namdates, namelist for C14 chemical model
  ~~~~~~~
     initial year for C14  ndate_start =         1654
     last    year for C14  ndate_end   =         2020
  end trc_nam_c14b 
           MY_TRC not used
  
  IN trclsm.dgom.h90
  ******************
  
  Read namelist for DGOM model
  ***********************
  
  
 natagg
  
  aggregation term 1 (rn_ag1poc) =   12000.000000000000     
  aggregation term 2 (rn_ag2poc) =   10000.000000000000     
  aggregation term 3 (rn_ag3poc) =   140.00000000000000     
  aggregation term 4 (rn_ag4poc) =   150.00000000000000     
  aggregation term 5 (rn_ag5doc) =   180.00000000000000     
  aggregation term 6 (rn_ag6doc) =   3900.0000000000000     
  POC sinking speed (rn_snkpoc)  =   3.0000000000000000     
  Big particles sinking multiplication (rn_snkgoc) =  0.69230000000000003     
  Big particles sinking division (rn_singoc) =   3.0300000000000001E-002
  
 natriv
  
  river conversion of dic (rn_rivdic) =   1.0000000000000000     
  river conversion of doc (rn_rivdoc) =   1.0000000000000000     
  river conversion of fer (rn_rivfer) =   5.0000000000000003E-002
  river conversion of nit (rn_rivnit) =   1.0000000000000000     
  river conversion of po4 (rn_rivpo4) =   1.0000000000000000     
  river conversion of poc (rn_rivpoc) =  0.55000000000000004     
  river conversion of sil (rn_rivsil) =   1.0000000000000000     
  
 natfer
  
  solubility of iron in dust (rn_fersol) =   1.0000000000000000E-002
  coastal release of iron (rn_sedfer) =   9.9999999999999994E-012
  scavenging rate of iron (rn_scofer) =   1.0000000000000000E-003
  minimum scavenging rate of iron (rn_scmfer) =   1.0000000000000000E-003
  ligand concentration of iron (rn_ligfer) =   6.0000000000000000E-010
  
 natbio
  
  calcification:photosynthesis coccolithoph.   =  0.10000000000000001     
  calcite dissolution with coc loss rn_discal  =  0.75000000000000000     
  aragonite dissolution with pte loss rn_disara=  0.75000000000000000     
  calcification:grazing pteropods    rn_pteara =  0.52000000000000002     
  subsat. aragonite dissolution rate rn_lysara =   10.900000000000000     
  subsat. calcite dissolution rate   rn_lyscal =   10.900000000000000     
 PRO                 
  maximal grazing rate               rn_grazoo =   1.5900000000000001     
  half saturation grazing            rn_grkzoo =   1.0000000000000001E-005
  temperature dependance grazingrate rn_mutpft =   1.0500000000000000     
  temperature dependance grazingrate rn_mudpft =   0.0000000000000000     
  gross growth efficiency            rn_ggezoo =  0.29999999999999999     
  unassimilated fraction/fecal pell. rn_unazoo =  0.13000000000000000     
  losses to POC=0 or GOC=1           nn_sizzoo =           0
  fraction of respiration as PO4     rn_sigzoo =  0.66000000000000003     
  respiration rate of zooplankton    rn_reszoo =   2.4000000000000000E-002
  temp. dep. zooplankton respiration rn_retzoo =   1.0818000000000001     
  preference for POC                    6.2000000000000000E-002
  preference for GOC                    6.2000000000000000E-002
  preference for BAC                    2.4800000000000000     
  preference for PRO                    0.0000000000000000     
  preference for PTE                    0.0000000000000000     
  preference for MES                    0.0000000000000000     
  preference for GEL                    0.0000000000000000     
  preference for MAC                    0.0000000000000000     
  preference for DIA                   0.62000000000000000     
  preference for MIX                    1.2400000000000000     
  preference for COC                   0.93000000000000005     
  preference for PIC                    1.8600000000000001     
  preference for PHA                    1.2400000000000000     
  preference for FIX                   0.62000000000000000     
 PTE                 
  maximal grazing rate               rn_grazoo =   1.1200000000000001     
  half saturation grazing            rn_grkzoo =   1.0000000000000001E-005
  temperature dependance grazingrate rn_mutpft =   1.0242000000000000     
  temperature dependance grazingrate rn_mudpft =   0.0000000000000000     
  gross growth efficiency            rn_ggezoo =  0.26000000000000001     
  unassimilated fraction/fecal pell. rn_unazoo =  0.29999999999999999     
  losses to POC=0 or GOC=1           nn_sizzoo =           1
  fraction of respiration as PO4     rn_sigzoo =  0.68000000000000005     
  respiration rate of zooplankton    rn_reszoo =   4.1000000000000002E-002
  temp. dep. zooplankton respiration rn_retzoo =   1.0748000000000000     
  preference for POC                   0.16500000000000001     
  preference for GOC                   0.16500000000000001     
  preference for BAC                   0.16500000000000001     
  preference for PRO                    2.4760000000000000     
  preference for PTE                    0.0000000000000000     
  preference for MES                    0.0000000000000000     
  preference for GEL                    0.0000000000000000     
  preference for MAC                    0.0000000000000000     
  preference for DIA                    1.6510000000000000     
  preference for MIX                    1.2380000000000000     
  preference for COC                    1.2380000000000000     
  preference for PIC                   0.99099999999999999     
  preference for PHA                    1.2380000000000000     
  preference for FIX                   0.16500000000000001     
 MES                 
  maximal grazing rate               rn_grazoo =   1.2200000000000000     
  half saturation grazing            rn_grkzoo =   1.0000000000000001E-005
  temperature dependance grazingrate rn_mutpft =   1.0242000000000000     
  temperature dependance grazingrate rn_mudpft =   0.0000000000000000     
  gross growth efficiency            rn_ggezoo =  0.26000000000000001     
  unassimilated fraction/fecal pell. rn_unazoo =  0.29999999999999999     
  losses to POC=0 or GOC=1           nn_sizzoo =           1
  fraction of respiration as PO4     rn_sigzoo =  0.68000000000000005     
  respiration rate of zooplankton    rn_reszoo =   2.5999999999999999E-002
  temp. dep. zooplankton respiration rn_retzoo =   1.0837000000000001     
  preference for POC                   0.16500000000000001     
  preference for GOC                   0.16500000000000001     
  preference for BAC                   0.16500000000000001     
  preference for PRO                    2.4760000000000000     
  preference for PTE                    0.0000000000000000     
  preference for MES                    0.0000000000000000     
  preference for GEL                    0.0000000000000000     
  preference for MAC                    0.0000000000000000     
  preference for DIA                    1.6510000000000000     
  preference for MIX                    1.2380000000000000     
  preference for COC                    1.2380000000000000     
  preference for PIC                   0.99099999999999999     
  preference for PHA                    1.2380000000000000     
  preference for FIX                   0.16500000000000001     
 GEL                 
  maximal grazing rate               rn_grazoo =  0.20699999999999999     
  half saturation grazing            rn_grkzoo =   1.0000000000000001E-005
  temperature dependance grazingrate rn_mutpft =   1.0530999999999999     
  temperature dependance grazingrate rn_mudpft =   0.0000000000000000     
  gross growth efficiency            rn_ggezoo =  0.29999999999999999     
  unassimilated fraction/fecal pell. rn_unazoo =  0.17999999999999999     
  losses to POC=0 or GOC=1           nn_sizzoo =           1
  fraction of respiration as PO4     rn_sigzoo =  0.69999999999999996     
  respiration rate of zooplankton    rn_reszoo =   1.4000000000000000E-002
  temp. dep. zooplankton respiration rn_retzoo =   1.0704000000000000     
  preference for POC                    4.5999999999999999E-002
  preference for GOC                    4.5999999999999999E-002
  preference for BAC                    4.5999999999999999E-002
  preference for PRO                    1.6100000000000001     
  preference for PTE                    2.2999999999999998     
  preference for MES                    3.4500000000000002     
  preference for GEL                    0.0000000000000000     
  preference for MAC                    2.2999999999999998     
  preference for DIA                   0.46000000000000002     
  preference for MIX                   0.46000000000000002     
  preference for COC                    4.5999999999999999E-002
  preference for PIC                    4.5999999999999999E-002
  preference for PHA                   0.46000000000000002     
  preference for FIX                    4.5999999999999999E-002
 MAC                 
  maximal grazing rate               rn_grazoo =  0.11600000000000001     
  half saturation grazing            rn_grkzoo =   1.0000000000000001E-005
  temperature dependance grazingrate rn_mutpft =   1.0840000000000001     
  temperature dependance grazingrate rn_mudpft =   0.0000000000000000     
  gross growth efficiency            rn_ggezoo =  0.29999999999999999     
  unassimilated fraction/fecal pell. rn_unazoo =  0.17999999999999999     
  losses to POC=0 or GOC=1           nn_sizzoo =           1
  fraction of respiration as PO4     rn_sigzoo =  0.69999999999999996     
  respiration rate of zooplankton    rn_reszoo =   8.9999999999999993E-003
  temp. dep. zooplankton respiration rn_retzoo =   1.0790000000000000     
  preference for POC                   0.18600000000000000     
  preference for GOC                   0.18600000000000000     
  preference for BAC                   0.18600000000000000     
  preference for PRO                    1.2090000000000001     
  preference for PTE                    1.2090000000000001     
  preference for MES                    2.0930000000000000     
  preference for GEL                    2.7900000000000000     
  preference for MAC                    0.0000000000000000     
  preference for DIA                    1.3950000000000000     
  preference for MIX                    1.3950000000000000     
  preference for COC                    1.3950000000000000     
[...]
           iom_nf90_rp0123d, file: ./ORCA2_01483725_restart_trc_0000.nc, var: sbc_PHA_b written ok
           iom_nf90_rp0123d, file: ./ORCA2_01483725_restart_trc_0000.nc, var: sbc_FIX_b written ok
           iom_nf90_rp0123d, file: ./ORCA2_01483725_restart_trc_0000.nc, var: sbc_DFe_b written ok
           iom_nf90_rp0123d, file: ./ORCA2_01483725_restart_trc_0000.nc, var: sbc_NFe_b written ok
           iom_nf90_rp0123d, file: ./ORCA2_01483725_restart_trc_0000.nc, var: sbc_CFe_b written ok
           iom_nf90_rp0123d, file: ./ORCA2_01483725_restart_trc_0000.nc, var: sbc_PFe_b written ok
           iom_nf90_rp0123d, file: ./ORCA2_01483725_restart_trc_0000.nc, var: sbc_HFe_b written ok
           iom_nf90_rp0123d, file: ./ORCA2_01483725_restart_trc_0000.nc, var: sbc_FFe_b written ok
           iom_nf90_rp0123d, file: ./ORCA2_01483725_restart_trc_0000.nc, var: sbc_DCHL_b written ok
           iom_nf90_rp0123d, file: ./ORCA2_01483725_restart_trc_0000.nc, var: sbc_NCHL_b written ok
           iom_nf90_rp0123d, file: ./ORCA2_01483725_restart_trc_0000.nc, var: sbc_CCHL_b written ok
           iom_nf90_rp0123d, file: ./ORCA2_01483725_restart_trc_0000.nc, var: sbc_PCHL_b written ok
           iom_nf90_rp0123d, file: ./ORCA2_01483725_restart_trc_0000.nc, var: sbc_HCHL_b written ok
           iom_nf90_rp0123d, file: ./ORCA2_01483725_restart_trc_0000.nc, var: sbc_FCHL_b written ok
           iom_nf90_rp0123d, file: ./ORCA2_01483725_restart_trc_0000.nc, var: sbc_BSi_b written ok
           iom_nf90_rp0123d, file: ./ORCA2_01483725_restart_trc_0000.nc, var: sbc_GON_b written ok
           iom_nf90_rp0123d, file: ./ORCA2_01483725_restart_trc_0000.nc, var: sbc_C11_b written ok
           iom_nf90_rp0123d, file: ./ORCA2_01483725_restart_trc_0000.nc, var: sbc_B14B_b written ok
           iom_nf90_rp0123d, file: ./ORCA2_01483725_restart_trc_0000.nc, var: sbc_C14B_b written ok
           iom_nf90_rp0123d, file: ./ORCA2_01483725_restart_trc_0000.nc, var: rdttrc1 written ok
           iom_nf90_rp0123d, file: ./ORCA2_01483725_restart_trc_0000.nc, var: TRNAlkalini written ok
           iom_nf90_rp0123d, file: ./ORCA2_01483725_restart_trc_0000.nc, var: TRNO2 written ok
           iom_nf90_rp0123d, file: ./ORCA2_01483725_restart_trc_0000.nc, var: TRNDIC written ok
           iom_nf90_rp0123d, file: ./ORCA2_01483725_restart_trc_0000.nc, var: TRNPIIC written ok
           iom_nf90_rp0123d, file: ./ORCA2_01483725_restart_trc_0000.nc, var: TRNNO3 written ok
           iom_nf90_rp0123d, file: ./ORCA2_01483725_restart_trc_0000.nc, var: TRNSi written ok
           iom_nf90_rp0123d, file: ./ORCA2_01483725_restart_trc_0000.nc, var: TRNPO4 written ok
           iom_nf90_rp0123d, file: ./ORCA2_01483725_restart_trc_0000.nc, var: TRNFer written ok
           iom_nf90_rp0123d, file: ./ORCA2_01483725_restart_trc_0000.nc, var: TRNDOC written ok
           iom_nf90_rp0123d, file: ./ORCA2_01483725_restart_trc_0000.nc, var: TRNDSi written ok
           iom_nf90_rp0123d, file: ./ORCA2_01483725_restart_trc_0000.nc, var: TRNCaCO3 written ok
           iom_nf90_rp0123d, file: ./ORCA2_01483725_restart_trc_0000.nc, var: TRNARA written ok
           iom_nf90_rp0123d, file: ./ORCA2_01483725_restart_trc_0000.nc, var: TRNSFe written ok
           iom_nf90_rp0123d, file: ./ORCA2_01483725_restart_trc_0000.nc, var: TRNBFe written ok
           iom_nf90_rp0123d, file: ./ORCA2_01483725_restart_trc_0000.nc, var: TRNPOC written ok
           iom_nf90_rp0123d, file: ./ORCA2_01483725_restart_trc_0000.nc, var: TRNGOC written ok
           iom_nf90_rp0123d, file: ./ORCA2_01483725_restart_trc_0000.nc, var: TRNBAC written ok
           iom_nf90_rp0123d, file: ./ORCA2_01483725_restart_trc_0000.nc, var: TRNPRO written ok
           iom_nf90_rp0123d, file: ./ORCA2_01483725_restart_trc_0000.nc, var: TRNPTE written ok
           iom_nf90_rp0123d, file: ./ORCA2_01483725_restart_trc_0000.nc, var: TRNMES written ok
           iom_nf90_rp0123d, file: ./ORCA2_01483725_restart_trc_0000.nc, var: TRNGEL written ok
           iom_nf90_rp0123d, file: ./ORCA2_01483725_restart_trc_0000.nc, var: TRNMAC written ok
           iom_nf90_rp0123d, file: ./ORCA2_01483725_restart_trc_0000.nc, var: TRNDIA written ok
           iom_nf90_rp0123d, file: ./ORCA2_01483725_restart_trc_0000.nc, var: TRNMIX written ok
           iom_nf90_rp0123d, file: ./ORCA2_01483725_restart_trc_0000.nc, var: TRNCOC written ok
           iom_nf90_rp0123d, file: ./ORCA2_01483725_restart_trc_0000.nc, var: TRNPIC written ok
           iom_nf90_rp0123d, file: ./ORCA2_01483725_restart_trc_0000.nc, var: TRNPHA written ok
           iom_nf90_rp0123d, file: ./ORCA2_01483725_restart_trc_0000.nc, var: TRNFIX written ok
           iom_nf90_rp0123d, file: ./ORCA2_01483725_restart_trc_0000.nc, var: TRNDFe written ok
           iom_nf90_rp0123d, file: ./ORCA2_01483725_restart_trc_0000.nc, var: TRNNFe written ok
           iom_nf90_rp0123d, file: ./ORCA2_01483725_restart_trc_0000.nc, var: TRNCFe written ok
           iom_nf90_rp0123d, file: ./ORCA2_01483725_restart_trc_0000.nc, var: TRNPFe written ok
           iom_nf90_rp0123d, file: ./ORCA2_01483725_restart_trc_0000.nc, var: TRNHFe written ok
           iom_nf90_rp0123d, file: ./ORCA2_01483725_restart_trc_0000.nc, var: TRNFFe written ok
           iom_nf90_rp0123d, file: ./ORCA2_01483725_restart_trc_0000.nc, var: TRNDCHL written ok
           iom_nf90_rp0123d, file: ./ORCA2_01483725_restart_trc_0000.nc, var: TRNNCHL written ok
           iom_nf90_rp0123d, file: ./ORCA2_01483725_restart_trc_0000.nc, var: TRNCCHL written ok
           iom_nf90_rp0123d, file: ./ORCA2_01483725_restart_trc_0000.nc, var: TRNPCHL written ok
           iom_nf90_rp0123d, file: ./ORCA2_01483725_restart_trc_0000.nc, var: TRNHCHL written ok
           iom_nf90_rp0123d, file: ./ORCA2_01483725_restart_trc_0000.nc, var: TRNFCHL written ok
           iom_nf90_rp0123d, file: ./ORCA2_01483725_restart_trc_0000.nc, var: TRNBSi written ok
           iom_nf90_rp0123d, file: ./ORCA2_01483725_restart_trc_0000.nc, var: TRNGON written ok
           iom_nf90_rp0123d, file: ./ORCA2_01483725_restart_trc_0000.nc, var: TRNC11 written ok
           iom_nf90_rp0123d, file: ./ORCA2_01483725_restart_trc_0000.nc, var: TRNB14B written ok
           iom_nf90_rp0123d, file: ./ORCA2_01483725_restart_trc_0000.nc, var: TRNC14B written ok
           iom_nf90_rp0123d, file: ./ORCA2_01483725_restart_trc_0000.nc, var: TRBAlkalini written ok
           iom_nf90_rp0123d, file: ./ORCA2_01483725_restart_trc_0000.nc, var: TRBO2 written ok
           iom_nf90_rp0123d, file: ./ORCA2_01483725_restart_trc_0000.nc, var: TRBDIC written ok
           iom_nf90_rp0123d, file: ./ORCA2_01483725_restart_trc_0000.nc, var: TRBPIIC written ok
           iom_nf90_rp0123d, file: ./ORCA2_01483725_restart_trc_0000.nc, var: TRBNO3 written ok
           iom_nf90_rp0123d, file: ./ORCA2_01483725_restart_trc_0000.nc, var: TRBSi written ok
           iom_nf90_rp0123d, file: ./ORCA2_01483725_restart_trc_0000.nc, var: TRBPO4 written ok
           iom_nf90_rp0123d, file: ./ORCA2_01483725_restart_trc_0000.nc, var: TRBFer written ok
           iom_nf90_rp0123d, file: ./ORCA2_01483725_restart_trc_0000.nc, var: TRBDOC written ok
           iom_nf90_rp0123d, file: ./ORCA2_01483725_restart_trc_0000.nc, var: TRBDSi written ok
           iom_nf90_rp0123d, file: ./ORCA2_01483725_restart_trc_0000.nc, var: TRBCaCO3 written ok
           iom_nf90_rp0123d, file: ./ORCA2_01483725_restart_trc_0000.nc, var: TRBARA written ok
           iom_nf90_rp0123d, file: ./ORCA2_01483725_restart_trc_0000.nc, var: TRBSFe written ok
           iom_nf90_rp0123d, file: ./ORCA2_01483725_restart_trc_0000.nc, var: TRBBFe written ok
           iom_nf90_rp0123d, file: ./ORCA2_01483725_restart_trc_0000.nc, var: TRBPOC written ok
           iom_nf90_rp0123d, file: ./ORCA2_01483725_restart_trc_0000.nc, var: TRBGOC written ok
           iom_nf90_rp0123d, file: ./ORCA2_01483725_restart_trc_0000.nc, var: TRBBAC written ok
           iom_nf90_rp0123d, file: ./ORCA2_01483725_restart_trc_0000.nc, var: TRBPRO written ok
           iom_nf90_rp0123d, file: ./ORCA2_01483725_restart_trc_0000.nc, var: TRBPTE written ok
           iom_nf90_rp0123d, file: ./ORCA2_01483725_restart_trc_0000.nc, var: TRBMES written ok
           iom_nf90_rp0123d, file: ./ORCA2_01483725_restart_trc_0000.nc, var: TRBGEL written ok
           iom_nf90_rp0123d, file: ./ORCA2_01483725_restart_trc_0000.nc, var: TRBMAC written ok
           iom_nf90_rp0123d, file: ./ORCA2_01483725_restart_trc_0000.nc, var: TRBDIA written ok
           iom_nf90_rp0123d, file: ./ORCA2_01483725_restart_trc_0000.nc, var: TRBMIX written ok
           iom_nf90_rp0123d, file: ./ORCA2_01483725_restart_trc_0000.nc, var: TRBCOC written ok
           iom_nf90_rp0123d, file: ./ORCA2_01483725_restart_trc_0000.nc, var: TRBPIC written ok
           iom_nf90_rp0123d, file: ./ORCA2_01483725_restart_trc_0000.nc, var: TRBPHA written ok
           iom_nf90_rp0123d, file: ./ORCA2_01483725_restart_trc_0000.nc, var: TRBFIX written ok
           iom_nf90_rp0123d, file: ./ORCA2_01483725_restart_trc_0000.nc, var: TRBDFe written ok
           iom_nf90_rp0123d, file: ./ORCA2_01483725_restart_trc_0000.nc, var: TRBNFe written ok
           iom_nf90_rp0123d, file: ./ORCA2_01483725_restart_trc_0000.nc, var: TRBCFe written ok
           iom_nf90_rp0123d, file: ./ORCA2_01483725_restart_trc_0000.nc, var: TRBPFe written ok
           iom_nf90_rp0123d, file: ./ORCA2_01483725_restart_trc_0000.nc, var: TRBHFe written ok
           iom_nf90_rp0123d, file: ./ORCA2_01483725_restart_trc_0000.nc, var: TRBFFe written ok
           iom_nf90_rp0123d, file: ./ORCA2_01483725_restart_trc_0000.nc, var: TRBDCHL written ok
           iom_nf90_rp0123d, file: ./ORCA2_01483725_restart_trc_0000.nc, var: TRBNCHL written ok
           iom_nf90_rp0123d, file: ./ORCA2_01483725_restart_trc_0000.nc, var: TRBCCHL written ok
           iom_nf90_rp0123d, file: ./ORCA2_01483725_restart_trc_0000.nc, var: TRBPCHL written ok
           iom_nf90_rp0123d, file: ./ORCA2_01483725_restart_trc_0000.nc, var: TRBHCHL written ok
           iom_nf90_rp0123d, file: ./ORCA2_01483725_restart_trc_0000.nc, var: TRBFCHL written ok
           iom_nf90_rp0123d, file: ./ORCA2_01483725_restart_trc_0000.nc, var: TRBBSi written ok
           iom_nf90_rp0123d, file: ./ORCA2_01483725_restart_trc_0000.nc, var: TRBGON written ok
           iom_nf90_rp0123d, file: ./ORCA2_01483725_restart_trc_0000.nc, var: TRBC11 written ok
           iom_nf90_rp0123d, file: ./ORCA2_01483725_restart_trc_0000.nc, var: TRBB14B written ok
           iom_nf90_rp0123d, file: ./ORCA2_01483725_restart_trc_0000.nc, var: TRBC14B written ok

            ----TRACER STAT----             

 tracer nb : 1    name :  Alkalini    mean :  0.2438911336E-02    min :  0.3674020597E-03    max :  0.3048294147E-02    drift : -0.4937043485E-03 %
 tracer nb : 2    name :        O2    mean :  0.1458883658E-03    min :  0.0000000000E+00    max :  0.4007031085E-03    drift :  0.2035435735E-01 %
 tracer nb : 3    name :       DIC    mean :  0.2335900326E-02    min :  0.3920739667E-03    max :  0.2620167257E-02    drift :  0.7899857607E-02 %
 tracer nb : 4    name :      PIIC    mean :  0.2324384391E-02    min :  0.3835368424E-03    max :  0.2542088385E-02    drift : -0.6327689263E-03 %
 tracer nb : 5    name :       NO3    mean :  0.3251052049E-04    min :  0.0000000000E+00    max :  0.4686998035E-04    drift :  0.1093690100E-01 %
 tracer nb : 6    name :        Si    mean :  0.8859979963E-04    min :  0.0000000000E+00    max :  0.3621475933E-03    drift : -0.5119552466E-02 %
 tracer nb : 7    name :       PO4    mean :  0.2731785804E-03    min :  0.7663748020E-06    max :  0.4231666630E-03    drift :  0.8009519004E-02 %
 tracer nb : 8    name :       Fer    mean :  0.2830243971E-09    min :  0.0000000000E+00    max :  0.1659315551E-07    drift :  0.9284864160E-02 %
 tracer nb : 9    name :       DOC    mean :  0.2876274275E-05    min :  0.0000000000E+00    max :  0.1996787418E-03    drift : -0.9837496045E-01 %
 tracer nb :10    name :       DSi    mean :  0.1049887581E-07    min :  0.0000000000E+00    max :  0.2113816195E-03    drift :  0.2665467173E+02 %
 tracer nb :11    name :     CaCO3    mean :  0.2441416063E-08    min :  0.0000000000E+00    max :  0.1094248802E-05    drift : -0.2065119924E+01 %
 tracer nb :12    name :       ARA    mean :  0.4138039749E-08    min :  0.0000000000E+00    max :  0.2808004318E-05    drift : -0.3712384796E+01 %
 tracer nb :13    name :       SFe    mean :  0.5491841719E-13    min :  0.0000000000E+00    max :  0.4026514992E-10    drift :  0.8073835706E+01 %
 tracer nb :14    name :       BFe    mean :  0.1318623557E-12    min :  0.0000000000E+00    max :  0.4306658924E-09    drift : -0.5547619609E+00 %
 tracer nb :15    name :       POC    mean :  0.3080642342E-07    min :  0.5030461491E-09    max :  0.8824577213E-05    drift :  0.1421356661E+01 %
 tracer nb :16    name :       GOC    mean :  0.3040779960E-07    min :  0.0000000000E+00    max :  0.9995565961E-04    drift :  0.8534910594E+00 %
 tracer nb :17    name :       BAC    mean :  0.1358644418E-07    min :  0.0000000000E+00    max :  0.2838086019E-04    drift :  0.1065498304E+00 %
 tracer nb :18    name :       PRO    mean :  0.1507711168E-07    min :  0.0000000000E+00    max :  0.1675070142E-04    drift :  0.8331874213E+01 %
 tracer nb :19    name :       PTE    mean :  0.1087834952E-07    min :  0.0000000000E+00    max :  0.1481171627E-04    drift : -0.1294324342E+01 %
 tracer nb :20    name :       MES    mean :  0.7017822505E-08    min :  0.0000000000E+00    max :  0.1147154422E-04    drift :  0.1561542737E+01 %
 tracer nb :21    name :       GEL    mean :  0.1091604450E-07    min :  0.0000000000E+00    max :  0.2682780652E-04    drift :  0.1403722171E+02 %
 tracer nb :22    name :       MAC    mean :  0.3416646409E-07    min :  0.0000000000E+00    max :  0.1774560266E-04    drift :  0.1298984382E+01 %
 tracer nb :23    name :       DIA    mean :  0.4385194748E-08    min :  0.0000000000E+00    max :  0.1826606490E-04    drift :  0.2203590693E+01 %
 tracer nb :24    name :       MIX    mean :  0.3592170389E-08    min :  0.0000000000E+00    max :  0.1746130636E-04    drift :  0.2591013310E+02 %
 tracer nb :25    name :       COC    mean :  0.1218559694E-07    min :  0.0000000000E+00    max :  0.3814679410E-04    drift : -0.2393806848E+01 %
 tracer nb :26    name :       PIC    mean :  0.1537851420E-07    min :  0.0000000000E+00    max :  0.3687456152E-04    drift : -0.1648593286E+00 %
 tracer nb :27    name :       PHA    mean :  0.7860279552E-09    min :  0.0000000000E+00    max :  0.1799903971E-04    drift :  0.1100281618E+03 %
 tracer nb :28    name :       FIX    mean :  0.1113198413E-07    min :  0.0000000000E+00    max :  0.2622360575E-04    drift :  0.5228006844E+01 %
 tracer nb :29    name :       DFe    mean :  0.4948391588E-13    min :  0.0000000000E+00    max :  0.3315813076E-09    drift :  0.1017115270E+01 %
 tracer nb :30    name :       NFe    mean :  0.3285274381E-13    min :  0.0000000000E+00    max :  0.1317758981E-09    drift :  0.2285003542E+02 %
 tracer nb :31    name :       CFe    mean :  0.1472300695E-12    min :  0.0000000000E+00    max :  0.4875548560E-09    drift : -0.2618101500E+01 %
 tracer nb :32    name :       PFe    mean :  0.1725750628E-12    min :  0.0000000000E+00    max :  0.6655478907E-09    drift : -0.9936447223E+00 %
 tracer nb :33    name :       HFe    mean :  0.8114755186E-14    min :  0.0000000000E+00    max :  0.1702378045E-09    drift :  0.1265714673E+03 %
 tracer nb :34    name :       FFe    mean :  0.9336925344E-13    min :  0.0000000000E+00    max :  0.1984366306E-09    drift :  0.4443178030E+01 %
 tracer nb :35    name :      DCHL    mean :  0.2432283897E-08    min :  0.0000000000E+00    max :  0.7981298957E-05    drift : -0.3540509542E-01 %
 tracer nb :36    name :      NCHL    mean :  0.8538811968E-09    min :  0.0000000000E+00    max :  0.2997262364E-05    drift :  0.2390745639E+02 %
 tracer nb :37    name :      CCHL    mean :  0.3032377010E-08    min :  0.0000000000E+00    max :  0.8636545565E-05    drift : -0.2477086907E+01 %
 tracer nb :38    name :      PCHL    mean :  0.3104217364E-08    min :  0.0000000000E+00    max :  0.1147776253E-04    drift : -0.2950685901E+01 %
 tracer nb :39    name :      HCHL    mean :  0.2038839492E-09    min :  0.0000000000E+00    max :  0.4041202612E-05    drift :  0.1116886379E+03 %
 tracer nb :40    name :      FCHL    mean :  0.1629936305E-08    min :  0.0000000000E+00    max :  0.4035671499E-05    drift :  0.5054180711E+01 %
 tracer nb :41    name :       BSi    mean :  0.1820526516E-08    min :  0.0000000000E+00    max :  0.7974769326E-05    drift :  0.2999236811E+01 %
 tracer nb :42    name :       GON    mean :  0.2654423217E-08    min :  0.0000000000E+00    max :  0.1548201868E-04    drift :  0.1232626220E+01 %
 tracer nb :43    name :       C11    mean :  0.1677107430E+01    min : -0.9973974243E-01    max :  0.9486588289E+01    drift : -0.6521123508E+00 %
 tracer nb :44    name :      B14B    mean : -0.1207475358E+02    min : -0.1986114583E+02    max :  0.1377452796E+01    drift : -0.7896161004E-01 %
 tracer nb :45    name :      C14B    mean : -0.1025649441E+02    min : -0.1916229867E+02    max :  0.7904093527E+01    drift : -0.2436112893E-02 %

                     iom_close ~~~ close file: ./ORCA2_01483725_restart_trc_0000.nc ok

 sbc : ocean surface tracer content forcing fields written in ocean restart file at it=      1483725  date=     20201231
 ~~~~
           iom_nf90_rp0123d, file: ./ORCA2_01483725_restart_0000.nc, var: sbc_hc_b written ok
           iom_nf90_rp0123d, file: ./ORCA2_01483725_restart_0000.nc, var: sbc_sc_b written ok

 qsr tracer content forcing field written in ocean restart file at it=      1483725  date=     20201231
 ~~~~
           iom_nf90_rp0123d, file: ./ORCA2_01483725_restart_0000.nc, var: qsr_hc_b written ok
           iom_nf90_rp0123d, file: ./ORCA2_01483725_restart_0000.nc, var: fraqsr_1lev written ok
           iom_nf90_rp0123d, file: ./ORCA2_01483725_restart_0000.nc, var: gcx written ok
           iom_nf90_rp0123d, file: ./ORCA2_01483725_restart_0000.nc, var: gcxb written ok
           iom_nf90_rp0123d, file: ./ORCA2_01483725_restart_0000.nc, var: rdt written ok
           iom_nf90_rp0123d, file: ./ORCA2_01483725_restart_0000.nc, var: rdttra1 written ok
           iom_nf90_rp0123d, file: ./ORCA2_01483725_restart_0000.nc, var: ub written ok
           iom_nf90_rp0123d, file: ./ORCA2_01483725_restart_0000.nc, var: vb written ok
           iom_nf90_rp0123d, file: ./ORCA2_01483725_restart_0000.nc, var: tb written ok
           iom_nf90_rp0123d, file: ./ORCA2_01483725_restart_0000.nc, var: sb written ok
           iom_nf90_rp0123d, file: ./ORCA2_01483725_restart_0000.nc, var: rotb written ok
           iom_nf90_rp0123d, file: ./ORCA2_01483725_restart_0000.nc, var: hdivb written ok
           iom_nf90_rp0123d, file: ./ORCA2_01483725_restart_0000.nc, var: sshb written ok
           iom_nf90_rp0123d, file: ./ORCA2_01483725_restart_0000.nc, var: un written ok
           iom_nf90_rp0123d, file: ./ORCA2_01483725_restart_0000.nc, var: vn written ok
           iom_nf90_rp0123d, file: ./ORCA2_01483725_restart_0000.nc, var: tn written ok
           iom_nf90_rp0123d, file: ./ORCA2_01483725_restart_0000.nc, var: sn written ok
           iom_nf90_rp0123d, file: ./ORCA2_01483725_restart_0000.nc, var: rotn written ok
           iom_nf90_rp0123d, file: ./ORCA2_01483725_restart_0000.nc, var: hdivn written ok
           iom_nf90_rp0123d, file: ./ORCA2_01483725_restart_0000.nc, var: sshn written ok
           iom_nf90_rp0123d, file: ./ORCA2_01483725_restart_0000.nc, var: rhop written ok
                     iom_close ~~~ close file: ./ORCA2_01483725_restart_0000.nc ok

AAAAAAAA

                     iom_close ~~~ close file: ./geothermal_heating.nc ok
                     iom_close ~~~ close file: bathy.orca.nc ok
