
    CNRS - NERC - Met OFFICE - MERCATOR-ocean - INGV - CMCC
                        NEMO team
             Ocean General Circulation Model
                   version 3.6  (2015) 


  mynode : mpi initialisation                                                    
  ~~~~~~                                                                         
     Namelist nammpp                                                             
        mpi send type                      cn_mpi_send = I                       
        size in bytes of exported buffer   nn_buffer   =            0            
        jpni, jpnj and jpnij will be calculated automatically                    
        avoid use of mpi_allgather at the north fold  ln_nnogather =  F          
             Immediate non-blocking send (isend)                                 

AAAAAAAA


 nemo_ctl: Control prints & Benchmark
 ~~~~~~~ 
    Namelist namctl
       run control (for debugging)     ln_ctl     =  F
       level of print                  nn_print   =            0
       Start i indice for SUM control  nn_ictls   =            0
       End i indice for SUM control    nn_ictle   =            0
       Start j indice for SUM control  nn_jctls   =            0
       End j indice for SUM control    nn_jctle   =            0
       number of proc. following i     nn_isplt   =            1
       number of proc. following j     nn_jsplt   =            1
       benchmark parameter (0/1)       nn_bench   =            0
       timing activated    (0/1)       nn_timing  =            0

 namcfg  : configuration initialization through namelist read
 ~~~~~~~ 
    Namelist namcfg
       configuration name              cp_cfg      = orca
       configuration zoom name         cp_cfz      = no zoom
       configuration resolution        jp_cfg      =            2
       1st lateral dimension ( >= jpi ) jpidta     =          182
       2nd    "         "    ( >= jpj ) jpjdta     =          149
       3nd    "         "               jpkdta     =           31
       1st dimension of global domain in i jpiglo  =          182
       2nd    -                  -    in j jpjglo  =          149
       left bottom i index of the zoom (in data domain) jpizoom =            1
       left bottom j index of the zoom (in data domain) jpizoom =            1
       lateral cond. type (between 0 and 6) jperio =            4
       use file attribute if exists as i/p j-start ln_use_jattr =  F

 mpp_init : Message Passing MPI
 ~~~~~~~~

            defines mpp subdomains
            ----------------------
            iresti=           6  irestj=           3
            jpni  =           6  jpnj  =           8

     ****************************************************************
     *              *               *               *               *   
   8 *   32  x 20   *    32  x 20   *    32  x 20   *    32  x 20   *   
     *              *               *               *               *   
     ****************************************************************
     *              *               *               *               *   
   7 *   32  x 20   *    32  x 20   *    32  x 20   *    32  x 20   *   
     *              *               *               *               *   
     ****************************************************************
     *              *               *               *               *   
   6 *   32  x 20   *    32  x 20   *    32  x 20   *    32  x 20   *   
     *              *               *               *               *   
     ****************************************************************
     *              *               *               *               *   
   5 *   32  x 20   *    32  x 20   *    32  x 20   *    32  x 20   *   
     *              *               *               *               *   
     ****************************************************************
     *              *               *               *               *   
   4 *   32  x 20   *    32  x 20   *    32  x 20   *    32  x 20   *   
     *              *               *               *               *   
     ****************************************************************
     *              *               *               *               *   
   3 *   32  x 21   *    32  x 21   *    32  x 21   *    32  x 21   *   
     *              *               *               *               *   
     ****************************************************************
     *              *               *               *               *   
   2 *   32  x 21   *    32  x 21   *    32  x 21   *    32  x 21   *   
     *              *               *               *               *   
     ****************************************************************
     *              *               *               *               *   
   1 *   32  x 21   *    32  x 21   *    32  x 21   *    32  x 21   *   
     *              *               *               *               *   
     ****************************************************************
             1               2               3               4             

     ********************************
     *              *               *   
   8 *   32  x 20   *    32  x 20   *   
     *              *               *   
     ********************************
     *              *               *   
   7 *   32  x 20   *    32  x 20   *   
     *              *               *   
     ********************************
     *              *               *   
   6 *   32  x 20   *    32  x 20   *   
     *              *               *   
     ********************************
     *              *               *   
   5 *   32  x 20   *    32  x 20   *   
     *              *               *   
     ********************************
     *              *               *   
   4 *   32  x 20   *    32  x 20   *   
     *              *               *   
     ********************************
     *              *               *   
   3 *   32  x 21   *    32  x 21   *   
     *              *               *   
     ********************************
     *              *               *   
   2 *   32  x 21   *    32  x 21   *   
     *              *               *   
     ********************************
     *              *               *   
   1 *   32  x 21   *    32  x 21   *   
     *              *               *   
     ********************************
             5               6             

  sum ilcit(i,1) =    182.00000000000000       jpiglo =          182
  sum ilcit(1,j) =    149.00000000000000       jpjglo =          149

  nproc  =            0
  nowe   =            5  noea   =             1
  nono   =            6  noso   =            -6
  nbondi =            0
  nbondj =           -1
  npolj  =            0
  nperio =            0
  nlci   =           32
  nlcj   =           21
  nimpp  =            1
  njmpp  =            1
  nbse   =            0  npse   =           -5
  nbsw   =            0  npsw   =           -1
  nbne   =            1  npne   =            7
  nbnw   =            1  npnw   =           11

 mpp_init_ioipsl :   iloc  =           32          21
 ~~~~~~~~~~~~~~~     iabsf =            1           1
                     ihals =            0           0
                     ihale =            1           1

  phy_cst : initialization of ocean parameters and constants
  ~~~~~~~
        Domain info
           dimension of model
                  Local domain      Global domain       Data domain 
               jpi     :      32   jpiglo  :     182   jpidta  :     182
               jpj     :      21   jpjglo  :     149   jpjdta  :     149
               jpk     :      31   jpk     :      31   jpkdta  :      31
               jpij    :          672
           mpp local domain info (mpp)
              jpni    :            6    jpreci  :            1
              jpnj    :            8    jprecj  :            1
              jpnij   :           48
           lateral domain boundary condition type : jperio  =            4

        Constants

           mathematical constant                 rpi =    3.1415926535897931     

           day                                rday   =    86400.000000000000       s
           sideral year                       rsiyea =    31558149.010110732       s
           sideral day                        rsiday =    86164.099655911836       s
           omega                              omega  =    7.2921150830460618E-005  s^-1

           nb of months per year               raamo =    12.000000000000000       months
           nb of hours per day                 rjjhh =    24.000000000000000       hours
           nb of minutes per hour              rhhmm =    60.000000000000000       mn
           nb of seconds per minute            rmmss =    60.000000000000000       s

           earth radius                         ra   =    6371229.0000000000       m
           gravity                              grav =    9.8066499999999994       m/s^2

           triple point of temperature      rtt      =    273.16000000000003       K
           freezing point of water          rt0      =    273.14999999999998       K
           melting point of snow            rt0_snow =    273.14999999999998       K
           melting point of ice             rt0_ice  =    273.14999999999998       K
           reference density and heat capacity now defined in eosbn2.f90

           thermal conductivity of the snow          =   0.31000000000000000       J/s/m/K
           thermal conductivity of the ice           =    2.0343960000000001       J/s/m/K
           fresh ice specific heat                   =    2067.0000000000000       J/kg/K
           latent heat of fusion of fresh ice / snow =    334000.00000000000       J/kg
           latent heat of subl.  of fresh ice / snow =    2834000.0000000000       J/kg
           volumetric latent heat fusion of snow     =    110220000.00000000       J/m^3
           density of sea ice                        =    917.00000000000000       kg/m^3
           density of snow                           =    330.00000000000000       kg/m^3
           emissivity of snow or ice                 =   0.96999999999999997     
           salinity of ice                           =    6.0000000000000000       psu
           salinity of sea                           =    34.700000000000003       psu
           latent heat of evaporation (water)        =    2500000.0000000000       J/m^3
           correction factor for solar radiation     =   0.90000000000000002     
           von Karman constant                       =   0.40000000000000002     
           Stefan-Boltzmann constant                 =    5.6699999999999998E-008  J/s/m^2/K^4

           conversion: degre ==> radian          rad =    1.7453292519943295E-002

           smallest real computer value       rsmall =    1.1102230246251565E-016

 eos_init : equation of state
 ~~~~~~~~
           Namelist nameos : set eos parameters
              flag for eq. of state and N^2  nn_eos   =           -1
              model uses Conservative Temperature
              Important: model must be initialized with CT and SA fields

           use of TEOS-10 equation of state (cons. temp. and abs. salinity)

           volumic mass of reference           rau0  =    1026.0000000000000       kg/m^3
           1. / rau0                        r1_rau0  =    9.7465886939571145E-004  m^3/kg
           ocean specific heat                 rcp   =    3991.8679571196299       J/Kelvin
           rau0 * rcp                       rau0_rcp =    4095656.5240047402     
           1. / ( rau0 * rcp )           r1_rau0_rcp =    2.4416109948160356E-007

 dom_cfg : set the ocean configuration
 ~~~~~~~ 
    ocean model configuration used :   cp_cfg = orca                                                                                                                                                                                                                                                             jp_cfg =            2
    global domain lateral boundaries
       jperio= 4, cyclic east-west and north fold with T-point pivot

 dom_glo : domain: data / local 
 ~~~~~~~ 
           data input domain    : jpidta =          182  jpjdta =          149  jpkdta =           31
           global or zoom domain: jpiglo =          182  jpjglo =          149  jpk    =           31
           local domain         : jpi    =           32  jpj    =           21  jpk    =           31

           south-west indices    jpizoom =            1  jpjzoom =            1

           conversion local  ==> data i-index domain
             1   2   3   4   5   6   7   8   9  10  11  12  13  14  15  16  17  18  19
            20  21  22  23  24  25  26  27  28  29  30  31  32

           conversion data   ==> local  i-index domain
              starting index
             1   2   3   4   5   6   7   8   9  10  11  12  13  14  15  16  17  18  19
            20  21  22  23  24  25  26  27  28  29  30  31  32  33  33  33  33  33  33
            33  33  33  33  33  33  33  33  33  33  33  33  33  33  33  33  33  33  33
            33  33  33  33  33  33  33  33  33  33  33  33  33  33  33  33  33  33  33
            33  33  33  33  33  33  33  33  33  33  33  33  33  33  33  33  33  33  33
            33  33  33  33  33  33  33  33  33  33  33  33  33  33  33  33  33  33  33
            33  33  33  33  33  33  33  33  33  33  33  33  33  33  33  33  33  33  33
            33  33  33  33  33  33  33  33  33  33  33  33  33  33  33  33  33  33  33
            33  33  33  33  33  33  33  33  33  33  33  33  33  33  33  33  33  33  33
            33  33  33  33  33  33  33  33  33  33  33
              ending index
             1   2   3   4   5   6   7   8   9  10  11  12  13  14  15  16  17  18  19
            20  21  22  23  24  25  26  27  28  29  30  31  32  32  32  32  32  32  32
            32  32  32  32  32  32  32  32  32  32  32  32  32  32  32  32  32  32  32
            32  32  32  32  32  32  32  32  32  32  32  32  32  32  32  32  32  32  32
            32  32  32  32  32  32  32  32  32  32  32  32  32  32  32  32  32  32  32
            32  32  32  32  32  32  32  32  32  32  32  32  32  32  32  32  32  32  32
            32  32  32  32  32  32  32  32  32  32  32  32  32  32  32  32  32  32  32
            32  32  32  32  32  32  32  32  32  32  32  32  32  32  32  32  32  32  32
            32  32  32  32  32  32  32  32  32  32  32  32  32  32  32  32  32  32  32
            32  32  32  32  32  32  32  32  32  32  32

           conversion local  ==> data j-index domain
             1   2   3   4   5   6   7   8   9  10  11  12  13  14  15  16  17  18  19
            20  21

           conversion data  ==> local j-index domain
              starting index
             1   2   3   4   5   6   7   8   9  10  11  12  13  14  15  16  17  18  19
            20  21  22  22  22  22  22  22  22  22  22  22  22  22  22  22  22  22  22
            22  22  22  22  22  22  22  22  22  22  22  22  22  22  22  22  22  22  22
            22  22  22  22  22  22  22  22  22  22  22  22  22  22  22  22  22  22  22
            22  22  22  22  22  22  22  22  22  22  22  22  22  22  22  22  22  22  22
            22  22  22  22  22  22  22  22  22  22  22  22  22  22  22  22  22  22  22
            22  22  22  22  22  22  22  22  22  22  22  22  22  22  22  22  22  22  22
            22  22  22  22  22  22  22  22  22  22  22  22  22  22  22  22
              ending index
             1   2   3   4   5   6   7   8   9  10  11  12  13  14  15  16  17  18  19
            20  21  21  21  21  21  21  21  21  21  21  21  21  21  21  21  21  21  21
            21  21  21  21  21  21  21  21  21  21  21  21  21  21  21  21  21  21  21
            21  21  21  21  21  21  21  21  21  21  21  21  21  21  21  21  21  21  21
            21  21  21  21  21  21  21  21  21  21  21  21  21  21  21  21  21  21  21
            21  21  21  21  21  21  21  21  21  21  21  21  21  21  21  21  21  21  21
            21  21  21  21  21  21  21  21  21  21  21  21  21  21  21  21  21  21  21
            21  21  21  21  21  21  21  21  21  21  21  21  21  21  21  21

           zoom flags : 
              lzoom   =  F  (T = zoom, F = global )
              lzoom_e =  F  (T = forced closed east  boundary)
              lzoom_w =  F  (T = forced closed west  boundary)
              lzoom_s =  F  (T = forced closed South boundary)
              lzoom_n =  F  (T = forced closed North boundary)

 dom_init : domain initialization
 ~~~~~~~~

 dom_nam  : domain initialization through namelist read
 ~~~~~~~ 
    Namelist namrun
       job number                      nn_no      =            0
       experiment name for output      cn_exp     = ORCA2                                                                                                                                                                                                                                                           
       file prefix restart input       cn_ocerst_in= restart                                                                                                                                                                                                                                                         
       restart input directory         cn_ocerst_indir= .                                                                                                                                                                                                                                                               
       file prefix restart output      cn_ocerst_out= restart                                                                                                                                                                                                                                                         
       restart output directory        cn_ocerst_outdir= .                                                                                                                                                                                                                                                               
       restart logical                 ln_rstart  =  T
       start with forward time step    nn_euler   =            1
       control of time step            nn_rstctl  =            2
       number of the first time step   nn_it000   =            1
       number of the last time step    nn_itend   =         5475
       initial calendar date aammjj    nn_date0   =     17500101
       leap year calendar (0/1)        nn_leapy   =            0
       initial state output            nn_istate  =            0
       frequency of restart file       nn_stock   =         5475
       frequency of output file        nn_write   =         5475
       multi file dimgout              ln_dimgnnn =  F
       mask land points                ln_mskland =  F
       additional CF standard metadata ln_cfmeta  =  F
       overwrite an existing file      ln_clobber =  T
       NetCDF chunksize (bytes)        nn_chunksz =            0
    The IOIPSL calendar is "noleap", i.e. no leap year

    Namelist namdom : space & time domain
       flag read/compute bathymetry      nn_bathy     =            1
       Depth (if =0 bathy=jpkm1)         rn_bathy     =    0.0000000000000000     
       min depth of the ocean    (>0) or    rn_hmin   =   -3.0000000000000000     
       min number of ocean level (<0)       
       minimum thickness of partial      rn_e3zps_min =    20.000000000000000       (m)
          step level                     rn_e3zps_rat =   0.10000000000000001     
       create mesh/mask file(s)          nn_msh       =            0
            = 0   no file created           
            = 1   mesh_mask                 
            = 2   mesh and mask             
            = 3   mesh_hgr, msh_zgr and mask
       ocean time step                       rn_rdt    =    5760.0000000000000     
       asselin time filter parameter         rn_atfp   =   0.10000000000000001     
       acceleration of converge              nn_acc    =            0
         nn_acc=1: surface tracer rdt        rn_rdtmin =    28800.000000000000     
                   bottom  tracer rdt        rdtmax    =    28800.000000000000     
                   depth of transition       rn_rdth   =    800.00000000000000     
       suppression of closed seas (=0)       nn_closea =            0
       online coarsening of dynamical fields ln_crs    =  F
       type of horizontal mesh jphgr_msh           =            0
       longitude of first raw and column T-point ppglam0 =    999999.00000000000     
       latitude  of first raw and column T-point ppgphi0 =    999999.00000000000     
       zonal      grid-spacing (degrees) ppe1_deg        =    999999.00000000000     
       meridional grid-spacing (degrees) ppe2_deg        =    999999.00000000000     
       zonal      grid-spacing (degrees) ppe1_m          =    999999.00000000000     
       meridional grid-spacing (degrees) ppe2_m          =    999999.00000000000     
       ORCA r4, r2 and r05 coefficients  ppsur           =   -4762.9614354630003     
                                         ppa0            =    255.58049070440001     
                                         ppa1            =    245.58132232489999     
                                         ppkth           =    21.433361979379999     
                                         ppacr           =    3.0000000000000000     
       Minimum vertical spacing ppdzmin                  =    999999.00000000000     
       Maximum depth pphmax                              =    999999.00000000000     
       Use double tanf function for vertical coordinates ldbletanh =  F
       Double tanh function parameters ppa2              =    999999.00000000000     
                                       ppkth2            =    999999.00000000000     
                                       ppacr2            =    999999.00000000000     

    Namelist namcla
       cross land advection                 nn_cla    =            0

 dom_clo : closed seas 
 ~~~~~~~

 dom_hgr : define the horizontal mesh from ithe following par_oce parameters 
 ~~~~~~~      type of horizontal mesh           jphgr_msh =            0
              position of the first row and     ppglam0  =    999999.00000000000     
              column grid-point (degrees)       ppgphi0  =    999999.00000000000     
              zonal      grid-spacing (degrees) ppe1_deg =    999999.00000000000     
              meridional grid-spacing (degrees) ppe2_deg =    999999.00000000000     
              zonal      grid-spacing (meters)  ppe1_m   =    999999.00000000000     
              meridional grid-spacing (meters)  ppe2_m   =    999999.00000000000     

           curvilinear coordinate on the sphere read in "coordinate" file

 hgr_read : read the horizontal coordinates
 ~~~~~~~~      jpiglo =          182  jpjglo =          149  jpk =           31

 ===>>> : E R R O R
         ===========

                     iom_open ~~~
 File coordinates.nc* not found

              orca_r2: Gibraltar    : e2u reduced to 20 km

              orca_r2: Bab el Mandeb: e2u reduced to 30 km
                                      e1v reduced to 18 km

              orca_r2: Danish Straits : e2u reduced to 10 km

 dom_zgr : vertical coordinate
 ~~~~~~~
           Namelist namzgr : set vertical coordinate
              z-coordinate - full steps      ln_zco    =  F
              z-coordinate - partial steps   ln_zps    =  T
              s- or hybrid z-s-coordinate    ln_sco    =  F
              ice shelf cavities             ln_isfcav =  F

     zgr_z   : Reference vertical z-coordinates
     ~~~~~~~
            Value of coefficients for vertical mesh:
                  zsur =   -4762.9614354630003     
                  za0  =    255.58049070440001     
                  za1  =    245.58132232489999     
                  zkth =    21.433361979379999     
                  zacr =    3.0000000000000000     

               Reference z-coordinate depth and scale factors:
          level  gdept_1d  gdepw_1d  e3t_1d   e3w_1d  
             1     5.00     0.00    10.00    10.00
             2    15.00    10.00    10.00    10.00
             3    25.00    20.00    10.00    10.00
             4    35.01    30.00    10.01    10.00
             5    45.01    40.01    10.01    10.01
             6    55.03    50.02    10.02    10.02
             7    65.06    60.04    10.04    10.03
             8    75.13    70.09    10.09    10.06
             9    85.25    80.18    10.17    10.12
            10    95.49    90.35    10.33    10.24
            11   105.97   100.69    10.65    10.47
            12   116.90   111.36    11.27    10.91
            13   128.70   122.65    12.47    11.77
            14   142.20   135.16    14.78    13.43
            15   158.96   150.03    19.23    16.65
            16   181.96   169.42    27.66    22.78
            17   216.65   197.37    43.26    34.30
            18   272.48   241.13    70.88    55.21
            19   364.30   312.74   116.11    90.99
            20   511.53   429.72   181.55   146.43
            21   732.20   611.89   261.03   220.35
            22  1033.22   872.87   339.39   301.42
            23  1405.70  1211.59   402.26   373.31
            24  1830.89  1612.98   444.87   426.00
            25  2289.77  2057.13   470.55   459.47
            26  2768.24  2527.22   484.95   478.83
            27  3257.48  3011.90   492.70   489.44
            28  3752.44  3504.46   496.78   495.07
            29  4250.40  4001.16   498.90   498.02
            30  4749.91  4500.02   500.00   499.54
            31  5250.23  5000.00   500.56   500.33

     zgr_bat : defines level and meter bathymetry
     ~~~~~~~
 DW: 1  F T F orca                                                                                                                                                                                                                                                                       2 F F

 ===>>> : E R R O R
         ===========

                     iom_open ~~~
 File bathy_meter.nc* not found
 DW: point           32          21   0.0000000000000000        0.0000000000000000     
 DW: 1a  F

       orca_r2: Gibraltar strait open at i=         140  j=         102

              orca_r2: Bab el Mandeb strait open at i=         160  j=          88
 DW: 1b            0 F
 Minimum ocean depth:    30.003215807563720       minimum number of ocean levels :            3

     zgr_zps : z-coordinate with partial steps
     ~~~~~~~ 
               mbathy is recomputed : bathy_level file is NOT used
 DW: 2  F F T F

     zgr_bat_ctl : check the bathymetry
     ~~~~~~~~~~~

                    suppress isolated ocean grid points
                    -----------------------------------
                2  ocean grid points suppressed
  mbathy set to 0 along east and west boundary: nperio =            0
  maximum number of ocean level =            0  < jpk-1
  you can decrease jpk to            1

     zgr_bot_level : ocean bottom k-index of T-, U-, V- and W-levels 
     ~~~~~~~~~~~~~

     zgr_top_level : ocean top k-index of T-, U-, V- and W-levels 
     ~~~~~~~~~~~~~

 dommsk : ocean mask 
 ~~~~~~
    Namelist namlbc
       lateral momentum boundary cond.    rn_shlat  =    1.6000000000000001     
       consistency with analytical form   ln_vorlat =  F
    ocean lateral  partial-slip 

 dom_vvl_init : Variable volume activated
 ~~~~~~~~~~~~

 ===>>> : W A R N I N G
         ===============

 W A R N I N G:  end of record or file while reading namelist nam_vvl in configuration namelist iostat =   -1

 dom_vvl_ctl : choice/control of the variable vertical coordinate
 ~~~~~~~~~~~
            Namelist nam_vvl : chose a vertical coordinate
               zstar                      ln_vvl_zstar   =  T
               ztilde                     ln_vvl_ztilde  =  F
               layer                      ln_vvl_layer   =  F
               ztilde as zstar   ln_vvl_ztilde_as_zstar  =  F
       ztilde near the equator    ln_vvl_zstar_at_eqtor  =  F
            Namelist nam_vvl : thickness diffusion coefficient
                                          rn_ahe3        =    0.0000000000000000     
            Namelist nam_vvl : maximum e3t deformation fractional change
                                          rn_zdef_max    =   0.90000000000000002     
            Namelist nam_vvl : z-tilde to zstar restoration timescale (days)
                                          rn_rst_e3t     =    30.000000000000000     
            Namelist nam_vvl : z-tilde cutoff frequency of low-pass filter (days)
                                          rn_lf_cutoff   =    5.0000000000000000     
            Namelist nam_vvl : debug prints
                                          ln_vvl_dbg     =  T

               zstar vertical coordinate is used

 rst_read : read oce NetCDF restart file
 ~~~~~~~~
                     iom_nf90_open ~~~ open existing file: ./restart_0000.nc in READ mode
                    ---> ./restart_0000.nc OK
           read sshn (rec:      1) in ./restart_0000.nc ok
           read fse3t_b (rec:      1) in ./restart_0000.nc ok
           read fse3t_n (rec:      1) in ./restart_0000.nc ok
 dom_vvl_rst : fse3t_b and fse3t_n found in restart files

 dom_stp : time stepping setting
 ~~~~~~~
                synchronous time stepping
                dynamics and tracer time step =    1.6000000000000001       hours
  
 istate_ini : Initialization of the dynamics and tracers
 ~~~~~~~~~~

 dta_tsd_init : Temperature & Salinity data 
 ~~~~~~~~~~~~ 
    Namelist namtsd
       Initialisation of ocean T & S with T &S input data   ln_tsd_init   =  F
       damping of ocean T & S toward T &S input data        ln_tsd_tradmp =  F


    T & S data not used
           read ub (rec:      1) in ./restart_0000.nc ok
           read vb (rec:      1) in ./restart_0000.nc ok
           read tb (rec:      1) in ./restart_0000.nc ok
           read sb (rec:      1) in ./restart_0000.nc ok
           read rotb (rec:      1) in ./restart_0000.nc ok
           read hdivb (rec:      1) in ./restart_0000.nc ok
           read sshb (rec:      1) in ./restart_0000.nc ok
           read un (rec:      1) in ./restart_0000.nc ok
           read vn (rec:      1) in ./restart_0000.nc ok
           read tn (rec:      1) in ./restart_0000.nc ok
           read sn (rec:      1) in ./restart_0000.nc ok
           read sshn (rec:      1) in ./restart_0000.nc ok
           read rotn (rec:      1) in ./restart_0000.nc ok
           read hdivn (rec:      1) in ./restart_0000.nc ok
           read rhop (rec:      1) in ./restart_0000.nc ok
  *** Info read in restart : 
    previous time-step                               :      1719150
  *** restart option
  nrstdt = 2 : calendar parameters read in restart

  *** Info used values : 
    date ndastp                                      :     20631231
    number of elapsed days since the begining of run :    114610.00000000000     

 =======>> 1/2 time step before the start of the run DATE Y/M/D =   2063/12/31  nsec_day:   83520  nsec_week:  256320
======>> time-step = 1719151      New day, DATE Y/M/D = 2064/01/01      nday_year = 001
         nsec_year =     2880   nsec_month =    2880   nsec_day =  2880
   nsec_week =   262080

 sbc_init : surface boundary condition setting
 ~~~~~~~~ 
         Namelist namsbc (partly overwritten with CPP key setting)
            frequency update of sbc (and ice)             nn_fsbc     =            5
            Type of sbc : 
               analytical formulation                     ln_ana      =  F
               flux       formulation                     ln_flx      =  F
               CLIO bulk  formulation                     ln_blk_clio =  F
               CORE bulk  formulation                     ln_blk_core =  T
               MFS  bulk  formulation                     ln_blk_mfs  =  F
               ocean-atmosphere coupled formulation       ln_cpl      =  F
               forced-coupled mixed formulation           ln_mixcpl   =  F
               OASIS coupling (with atm or sas)           lk_oasis    =  F
               components of your executable              nn_components =            0
               Multicategory heat flux formulation (LIM3) nn_limflx   =            0
            Misc. options of sbc : 
               Patm gradient added in ocean & ice Eqs.    ln_apr_dyn  =  F
               ice management in the sbc (=0/1/2/3)       nn_ice      =            3
               ice-ocean embedded/levitating (=0/1/2)     nn_ice_embd =            1
               daily mean to diurnal cycle qsr            ln_dm2dc    =  F
               runoff / runoff mouths                     ln_rnf      =  T
               iceshelf formulation                       nn_isf      =            0
               Sea Surface Restoring on SST and/or SSS    ln_ssr      =  T
               FreshWater Budget control  (=0/1/2)        nn_fwb      =            2
               closed sea (=0/1) (set in namdom)          nn_closea   =            0
               n. of iterations if land-sea-mask applied  nn_lsm      =            0
               Average per-category fluxes (nn_limflx = 0) 

               CORE bulk formulation

 sbc_ssm : sea surface mean fields
 ~~~~~~~ 
           read ssu_m (rec:      1) in ./restart_0000.nc ok
           read ssv_m (rec:      1) in ./restart_0000.nc ok
           read sst_m (rec:      1) in ./restart_0000.nc ok
           read sss_m (rec:      1) in ./restart_0000.nc ok
           read ssh_m (rec:      1) in ./restart_0000.nc ok
           read e3t_m (rec:      1) in ./restart_0000.nc ok
           read frq_m (rec:      1) in ./restart_0000.nc ok
 ~~~~~~~   mean fields read in the ocean restart file

 sbc_ssr : SST and/or SSS damping term 
 ~~~~~~~ 
    Namelist namsbc_ssr :
       SST restoring term (Yes=1)             nn_sstr     =            0
       SSS damping term (Yes=1, salt flux)    nn_sssr     =            2
                        (Yes=2, volume flux) 
       dQ/dT (restoring magnitude on SST)     rn_dqdt     =   -40.000000000000000       W/m2/K
       dE/dS (restoring magnitude on SST)     rn_deds     =   -166.66999999999999       mm/day
       flag to bound erp term                 ln_sssr_bnd =  T
       ABS(Max./Min.) erp threshold           rn_sssr_bnd =    4.0000000000000000       mm/day

 sbc_ssr : SSS restoring term toward SSS data
 ~~~~~~~
           namsbc_ssr Namelist
           list of files and frequency (>0: in hours ; <0 in months)
                root filename: ./ssr variable name: s_an
                frequency:   -1.0000000000000000       time interp:  T  climatology:  T  weights    :  pairing    :  data type: yearly   land/sea mask:

 sbc_rnf : runoff 
 ~~~~~~~ 
    Namelist namsbc_rnf
       specific river mouths treatment            ln_rnf_mouth =  T
       river mouth additional Kz                  rn_avt_rnf   =    1.0000000000000000E-003
       depth of river mouth additional mixing     rn_hrnf      =    15.000000000000000     
       multiplicative factor for runoff           rn_rfact     =    1.0000000000000000     

           runoffs inflow read in a file

 sbc_rnf_init : read runoffs data
 ~~~~~~~~~~~~
           namsbc_rnf Namelist
           list of files and frequency (>0: in hours ; <0 in months)
                root filename: ./runoff_core_monthly variable name: sorunoff
                frequency:   -1.0000000000000000       time interp:  T  climatology:  T  weights    :  pairing    :  data type: yearly   land/sea mask:

           Specific treatment used in vicinity of river mouths :
              - Increase Kz in surface layers (if rn_hrnf > 0 )
                by    1.0000000000000000E-003  m2/s  over            2  w-levels
              - set to zero SSS damping       (if ln_ssr=T)
              - mixed upstream-centered       (if ln_traadv_cen2=T)

 rnf_mouth : river mouth mask
 ~~~~~~~~~ 

 ===>>> : E R R O R
         ===========

                     iom_open ~~~
 File ./runoff_core_monthly.nc* not found

 sbc_ice_lim : update ocean surface boudary condition
 ~~~~~~~~~~~   via Louvain la Neuve Ice Model (LIM-3) time stepping
      file   : namelist_ice_ref                                                                 open ok
      unit   =           20
      status = OLD
      form   = FORMATTED
      access = SEQUENTIAL

      file   : namelist_ice_cfg                                                                 open ok
      unit   =           21
      status = OLD
      form   = FORMATTED
      access = SEQUENTIAL

      file   : output.namelist.ice                                                              open ok
      unit   =           22
      status = UNKNOWN
      form   = FORMATTED
      access = SEQUENTIAL


 ice_run : ice share parameters for dynamics/advection/thermo of sea-ice
  ~~~~~~
    number of ice  categories                               =            5
    number of ice  layers                                   =            2
    number of snow layers                                   =            1
    switch for ice dynamics (1) or not (0)      ln_limdyn   =  T
    maximum ice concentration                               =   0.99900000000000000     
    Diagnose heat/salt budget or not          ln_limdiahsb  =  F
    Output   heat/salt budget or not          ln_limdiaout  =  T
    control prints in ocean.out for (i,j)=(iiceprt,jiceprt) =  F
    i-index for control prints (ln_icectl=true)             =           10
    j-index for control prints (ln_icectl=true)             =           10

 ===>>> : W A R N I N G
         ===============

 W A R N I N G:  end of record or file while reading namelist namiceitd in configuration namelist iostat =   -1

 ice_itd : ice cat distribution
  ~~~~~~
    shape of ice categories distribution                          nn_catbnd =            2
    mean ice thickness in the domain (only active if nn_catbnd=2) rn_himean =    2.0000000000000000     

 lim_itd_init : Initialization of ice cat distribution 
 ~~~~~~~~~~~~
  Thickness category boundaries 
  hi_max    0.0000000000000000       0.45401674241555168        1.1293138230836322        2.1414589889479725        3.6705964099155439        99.000000000000000     

 lim_hdf : Ice horizontal diffusion
 ~~~~~~~

 ===>>> : W A R N I N G
         ===============

 W A R N I N G:  end of record or file while reading namelist namicehdf in configuration namelist iostat =   -1

    Namelist of ice parameters for ice horizontal diffusion computation 
       convergence check frequency of the Crant-Nicholson scheme   nn_convfrq   =            5

 lim_thd : Ice Thermodynamics
 ~~~~~~~

    Namelist of ice parameters for ice thermodynamic computation 
       ice thick. for lateral accretion                        rn_hnewice   =   0.10000000000000001     
       Frazil ice thickness as a function of wind or not       ln_frazil    =  F
       Maximum proportion of frazil ice collecting at bottom   rn_maxfrazb  =    1.0000000000000000     
       Thresold relative drift speed for collection of frazil  rn_vfrazb    =   0.41699999999999998     
       Squeezing coefficient for collection of frazil          rn_Cfrazb    =    5.0000000000000000     
       minimum ice thickness                                   rn_himin     =   0.10000000000000001     
       numerical carac. of the scheme for diffusion in ice 
       coefficient for ice-lead partition of snowfall          rn_betas     =   0.66000000000000003     
       extinction radiation parameter in sea ice               rn_kappa_i   =    1.0000000000000000     
       maximal n. of iter. for heat diffusion computation      nn_conv_dif  =    50.000000000000000     
       maximal err. on T for heat diffusion computation        rn_terr_dif  =    1.0000000000000000E-004
       switch for comp. of thermal conductivity in the ice     nn_ice_thcon =            1
       check heat conservation in the ice/snow                 con_i        =  F
       virtual ITD mono-category parameterizations (1) or not  nn_monocat   =            0
       iterate the surface non-solar flux (T) or not (F)       ln_it_qnsice =  T

 ===>>> : W A R N I N G
         ===============

 W A R N I N G:  end of record or file while reading namelist namicesal in configuration namelist iostat =   -1

 lim_thd_sal_init : Ice parameters for salinity 
 ~~~~~~~~~~~~~~~~
    switch for salinity nn_icesal        =            2
    bulk salinity value if nn_icesal = 1 =    4.0000000000000000     
    restoring salinity for GD            =    5.0000000000000000     
    restoring time for GD                =    1730000.0000000000     
    restoring salinity for flushing      =    2.0000000000000000     
    restoring time for flushing          =    864000.00000000000     
    Maximum tolerated ice salinity       =    20.000000000000000     
    Minimum tolerated ice salinity       =   0.10000000000000001     

 lim_msh : LIM-3 sea-ice model, mesh initialization
 ~~~~~~~
           the model domain is entirely in the northern hemisphere: njeq =            2

 ===>>> : W A R N I N G
         ===============

 W A R N I N G:  end of record or file while reading namelist namiceitdme in configuration namelist iostat =   -1

  lim_itd_me_init : ice parameters for mechanical ice redistribution 
  ~~~~~~~~~~~~~~~
    Fraction of shear energy contributing to ridging        rn_cs       =   0.50000000000000000     
    Fraction of snow volume conserved during ridging        rn_fsnowrdg =   0.50000000000000000     
    Fraction of snow volume conserved during ridging        rn_fsnowrft =   0.50000000000000000     
    Fraction of total ice coverage contributing to ridging  rn_gstar    =   0.14999999999999999     
    Equivalent to G* for an exponential part function       rn_astar    =    5.0000000000000003E-002
    Quantity playing a role in max ridged ice thickness     rn_hstar    =    100.00000000000000     
    Rafting of ice sheets or not                            ln_rafting  =  T
    Parmeter thickness (threshold between ridge-raft)       rn_hraft    =   0.75000000000000000     
    Rafting hyperbolic tangent coefficient                  rn_craft    =    5.0000000000000000     
    Initial porosity of ridges                              rn_por_rdg  =   0.29999999999999999     
    Switch for part. function (0) linear (1) exponential    nn_partfun  =            1

 lim_rst_read : read ice NetCDF restart file
 ~~~~~~~~~~~~~
                     iom_nf90_open ~~~ open existing file: ./restart_ice_in_0000.nc in READ mode
                    ---> ./restart_ice_in_0000.nc OK
    read ice restart file at time step    :    1719150.0000000000     
    in any case we force it to nit000 - 1 :      1719150
           read v_i_htc1 (rec:      1) in ./restart_ice_in_0000.nc ok
           read v_s_htc1 (rec:      1) in ./restart_ice_in_0000.nc ok
           read smv_i_htc1 (rec:      1) in ./restart_ice_in_0000.nc ok
           read oa_i_htc1 (rec:      1) in ./restart_ice_in_0000.nc ok
           read a_i_htc1 (rec:      1) in ./restart_ice_in_0000.nc ok
           read t_su_htc1 (rec:      1) in ./restart_ice_in_0000.nc ok
           read v_i_htc2 (rec:      1) in ./restart_ice_in_0000.nc ok
           read v_s_htc2 (rec:      1) in ./restart_ice_in_0000.nc ok
           read smv_i_htc2 (rec:      1) in ./restart_ice_in_0000.nc ok
           read oa_i_htc2 (rec:      1) in ./restart_ice_in_0000.nc ok
           read a_i_htc2 (rec:      1) in ./restart_ice_in_0000.nc ok
           read t_su_htc2 (rec:      1) in ./restart_ice_in_0000.nc ok
           read v_i_htc3 (rec:      1) in ./restart_ice_in_0000.nc ok
           read v_s_htc3 (rec:      1) in ./restart_ice_in_0000.nc ok
           read smv_i_htc3 (rec:      1) in ./restart_ice_in_0000.nc ok
           read oa_i_htc3 (rec:      1) in ./restart_ice_in_0000.nc ok
           read a_i_htc3 (rec:      1) in ./restart_ice_in_0000.nc ok
           read t_su_htc3 (rec:      1) in ./restart_ice_in_0000.nc ok
           read v_i_htc4 (rec:      1) in ./restart_ice_in_0000.nc ok
           read v_s_htc4 (rec:      1) in ./restart_ice_in_0000.nc ok
           read smv_i_htc4 (rec:      1) in ./restart_ice_in_0000.nc ok
           read oa_i_htc4 (rec:      1) in ./restart_ice_in_0000.nc ok
           read a_i_htc4 (rec:      1) in ./restart_ice_in_0000.nc ok
           read t_su_htc4 (rec:      1) in ./restart_ice_in_0000.nc ok
           read v_i_htc5 (rec:      1) in ./restart_ice_in_0000.nc ok
           read v_s_htc5 (rec:      1) in ./restart_ice_in_0000.nc ok
           read smv_i_htc5 (rec:      1) in ./restart_ice_in_0000.nc ok
           read oa_i_htc5 (rec:      1) in ./restart_ice_in_0000.nc ok
           read a_i_htc5 (rec:      1) in ./restart_ice_in_0000.nc ok
           read t_su_htc5 (rec:      1) in ./restart_ice_in_0000.nc ok
           read tempt_sl1_htc1 (rec:      1) in ./restart_ice_in_0000.nc ok
           read tempt_sl1_htc2 (rec:      1) in ./restart_ice_in_0000.nc ok
           read tempt_sl1_htc3 (rec:      1) in ./restart_ice_in_0000.nc ok
           read tempt_sl1_htc4 (rec:      1) in ./restart_ice_in_0000.nc ok
           read tempt_sl1_htc5 (rec:      1) in ./restart_ice_in_0000.nc ok
           read tempt_il1_htc1 (rec:      1) in ./restart_ice_in_0000.nc ok
           read tempt_il2_htc1 (rec:      1) in ./restart_ice_in_0000.nc ok
           read tempt_il1_htc2 (rec:      1) in ./restart_ice_in_0000.nc ok
           read tempt_il2_htc2 (rec:      1) in ./restart_ice_in_0000.nc ok
           read tempt_il1_htc3 (rec:      1) in ./restart_ice_in_0000.nc ok
           read tempt_il2_htc3 (rec:      1) in ./restart_ice_in_0000.nc ok
           read tempt_il1_htc4 (rec:      1) in ./restart_ice_in_0000.nc ok
           read tempt_il2_htc4 (rec:      1) in ./restart_ice_in_0000.nc ok
           read tempt_il1_htc5 (rec:      1) in ./restart_ice_in_0000.nc ok
           read tempt_il2_htc5 (rec:      1) in ./restart_ice_in_0000.nc ok
           read u_ice (rec:      1) in ./restart_ice_in_0000.nc ok
           read v_ice (rec:      1) in ./restart_ice_in_0000.nc ok
           read stress1_i (rec:      1) in ./restart_ice_in_0000.nc ok
           read stress2_i (rec:      1) in ./restart_ice_in_0000.nc ok
           read stress12_i (rec:      1) in ./restart_ice_in_0000.nc ok
           read snwice_mass (rec:      1) in ./restart_ice_in_0000.nc ok
           read snwice_mass_b (rec:      1) in ./restart_ice_in_0000.nc ok
           read sxice_htc1 (rec:      1) in ./restart_ice_in_0000.nc ok
           read syice_htc1 (rec:      1) in ./restart_ice_in_0000.nc ok
           read sxxice_htc1 (rec:      1) in ./restart_ice_in_0000.nc ok
           read syyice_htc1 (rec:      1) in ./restart_ice_in_0000.nc ok
           read sxyice_htc1 (rec:      1) in ./restart_ice_in_0000.nc ok
           read sxsn_htc1 (rec:      1) in ./restart_ice_in_0000.nc ok
           read sysn_htc1 (rec:      1) in ./restart_ice_in_0000.nc ok
           read sxxsn_htc1 (rec:      1) in ./restart_ice_in_0000.nc ok
           read syysn_htc1 (rec:      1) in ./restart_ice_in_0000.nc ok
           read sxysn_htc1 (rec:      1) in ./restart_ice_in_0000.nc ok
           read sxa_htc1 (rec:      1) in ./restart_ice_in_0000.nc ok
           read sya_htc1 (rec:      1) in ./restart_ice_in_0000.nc ok
           read sxxa_htc1 (rec:      1) in ./restart_ice_in_0000.nc ok
           read syya_htc1 (rec:      1) in ./restart_ice_in_0000.nc ok
           read sxya_htc1 (rec:      1) in ./restart_ice_in_0000.nc ok
           read sxc0_htc1 (rec:      1) in ./restart_ice_in_0000.nc ok
           read syc0_htc1 (rec:      1) in ./restart_ice_in_0000.nc ok
           read sxxc0_htc1 (rec:      1) in ./restart_ice_in_0000.nc ok
           read syyc0_htc1 (rec:      1) in ./restart_ice_in_0000.nc ok
           read sxyc0_htc1 (rec:      1) in ./restart_ice_in_0000.nc ok
           read sxsal_htc1 (rec:      1) in ./restart_ice_in_0000.nc ok
           read sysal_htc1 (rec:      1) in ./restart_ice_in_0000.nc ok
           read sxxsal_htc1 (rec:      1) in ./restart_ice_in_0000.nc ok
           read syysal_htc1 (rec:      1) in ./restart_ice_in_0000.nc ok
           read sxysal_htc1 (rec:      1) in ./restart_ice_in_0000.nc ok
           read sxage_htc1 (rec:      1) in ./restart_ice_in_0000.nc ok
           read syage_htc1 (rec:      1) in ./restart_ice_in_0000.nc ok
           read sxxage_htc1 (rec:      1) in ./restart_ice_in_0000.nc ok
           read syyage_htc1 (rec:      1) in ./restart_ice_in_0000.nc ok
           read sxyage_htc1 (rec:      1) in ./restart_ice_in_0000.nc ok
           read sxice_htc2 (rec:      1) in ./restart_ice_in_0000.nc ok
           read syice_htc2 (rec:      1) in ./restart_ice_in_0000.nc ok
           read sxxice_htc2 (rec:      1) in ./restart_ice_in_0000.nc ok
           read syyice_htc2 (rec:      1) in ./restart_ice_in_0000.nc ok
           read sxyice_htc2 (rec:      1) in ./restart_ice_in_0000.nc ok
           read sxsn_htc2 (rec:      1) in ./restart_ice_in_0000.nc ok
           read sysn_htc2 (rec:      1) in ./restart_ice_in_0000.nc ok
           read sxxsn_htc2 (rec:      1) in ./restart_ice_in_0000.nc ok
           read syysn_htc2 (rec:      1) in ./restart_ice_in_0000.nc ok
           read sxysn_htc2 (rec:      1) in ./restart_ice_in_0000.nc ok
           read sxa_htc2 (rec:      1) in ./restart_ice_in_0000.nc ok
           read sya_htc2 (rec:      1) in ./restart_ice_in_0000.nc ok
           read sxxa_htc2 (rec:      1) in ./restart_ice_in_0000.nc ok
           read syya_htc2 (rec:      1) in ./restart_ice_in_0000.nc ok
           read sxya_htc2 (rec:      1) in ./restart_ice_in_0000.nc ok
           read sxc0_htc2 (rec:      1) in ./restart_ice_in_0000.nc ok
           read syc0_htc2 (rec:      1) in ./restart_ice_in_0000.nc ok
           read sxxc0_htc2 (rec:      1) in ./restart_ice_in_0000.nc ok
           read syyc0_htc2 (rec:      1) in ./restart_ice_in_0000.nc ok
           read sxyc0_htc2 (rec:      1) in ./restart_ice_in_0000.nc ok
           read sxsal_htc2 (rec:      1) in ./restart_ice_in_0000.nc ok
           read sysal_htc2 (rec:      1) in ./restart_ice_in_0000.nc ok
           read sxxsal_htc2 (rec:      1) in ./restart_ice_in_0000.nc ok
           read syysal_htc2 (rec:      1) in ./restart_ice_in_0000.nc ok
           read sxysal_htc2 (rec:      1) in ./restart_ice_in_0000.nc ok
           read sxage_htc2 (rec:      1) in ./restart_ice_in_0000.nc ok
           read syage_htc2 (rec:      1) in ./restart_ice_in_0000.nc ok
           read sxxage_htc2 (rec:      1) in ./restart_ice_in_0000.nc ok
           read syyage_htc2 (rec:      1) in ./restart_ice_in_0000.nc ok
           read sxyage_htc2 (rec:      1) in ./restart_ice_in_0000.nc ok
           read sxice_htc3 (rec:      1) in ./restart_ice_in_0000.nc ok
           read syice_htc3 (rec:      1) in ./restart_ice_in_0000.nc ok
           read sxxice_htc3 (rec:      1) in ./restart_ice_in_0000.nc ok
           read syyice_htc3 (rec:      1) in ./restart_ice_in_0000.nc ok
           read sxyice_htc3 (rec:      1) in ./restart_ice_in_0000.nc ok
           read sxsn_htc3 (rec:      1) in ./restart_ice_in_0000.nc ok
           read sysn_htc3 (rec:      1) in ./restart_ice_in_0000.nc ok
           read sxxsn_htc3 (rec:      1) in ./restart_ice_in_0000.nc ok
           read syysn_htc3 (rec:      1) in ./restart_ice_in_0000.nc ok
           read sxysn_htc3 (rec:      1) in ./restart_ice_in_0000.nc ok
           read sxa_htc3 (rec:      1) in ./restart_ice_in_0000.nc ok
           read sya_htc3 (rec:      1) in ./restart_ice_in_0000.nc ok
           read sxxa_htc3 (rec:      1) in ./restart_ice_in_0000.nc ok
           read syya_htc3 (rec:      1) in ./restart_ice_in_0000.nc ok
           read sxya_htc3 (rec:      1) in ./restart_ice_in_0000.nc ok
           read sxc0_htc3 (rec:      1) in ./restart_ice_in_0000.nc ok
           read syc0_htc3 (rec:      1) in ./restart_ice_in_0000.nc ok
           read sxxc0_htc3 (rec:      1) in ./restart_ice_in_0000.nc ok
           read syyc0_htc3 (rec:      1) in ./restart_ice_in_0000.nc ok
           read sxyc0_htc3 (rec:      1) in ./restart_ice_in_0000.nc ok
           read sxsal_htc3 (rec:      1) in ./restart_ice_in_0000.nc ok
           read sysal_htc3 (rec:      1) in ./restart_ice_in_0000.nc ok
           read sxxsal_htc3 (rec:      1) in ./restart_ice_in_0000.nc ok
           read syysal_htc3 (rec:      1) in ./restart_ice_in_0000.nc ok
           read sxysal_htc3 (rec:      1) in ./restart_ice_in_0000.nc ok
           read sxage_htc3 (rec:      1) in ./restart_ice_in_0000.nc ok
           read syage_htc3 (rec:      1) in ./restart_ice_in_0000.nc ok
           read sxxage_htc3 (rec:      1) in ./restart_ice_in_0000.nc ok
           read syyage_htc3 (rec:      1) in ./restart_ice_in_0000.nc ok
           read sxyage_htc3 (rec:      1) in ./restart_ice_in_0000.nc ok
           read sxice_htc4 (rec:      1) in ./restart_ice_in_0000.nc ok
           read syice_htc4 (rec:      1) in ./restart_ice_in_0000.nc ok
           read sxxice_htc4 (rec:      1) in ./restart_ice_in_0000.nc ok
           read syyice_htc4 (rec:      1) in ./restart_ice_in_0000.nc ok
           read sxyice_htc4 (rec:      1) in ./restart_ice_in_0000.nc ok
           read sxsn_htc4 (rec:      1) in ./restart_ice_in_0000.nc ok
           read sysn_htc4 (rec:      1) in ./restart_ice_in_0000.nc ok
           read sxxsn_htc4 (rec:      1) in ./restart_ice_in_0000.nc ok
           read syysn_htc4 (rec:      1) in ./restart_ice_in_0000.nc ok
           read sxysn_htc4 (rec:      1) in ./restart_ice_in_0000.nc ok
           read sxa_htc4 (rec:      1) in ./restart_ice_in_0000.nc ok
           read sya_htc4 (rec:      1) in ./restart_ice_in_0000.nc ok
           read sxxa_htc4 (rec:      1) in ./restart_ice_in_0000.nc ok
           read syya_htc4 (rec:      1) in ./restart_ice_in_0000.nc ok
           read sxya_htc4 (rec:      1) in ./restart_ice_in_0000.nc ok
           read sxc0_htc4 (rec:      1) in ./restart_ice_in_0000.nc ok
           read syc0_htc4 (rec:      1) in ./restart_ice_in_0000.nc ok
           read sxxc0_htc4 (rec:      1) in ./restart_ice_in_0000.nc ok
           read syyc0_htc4 (rec:      1) in ./restart_ice_in_0000.nc ok
           read sxyc0_htc4 (rec:      1) in ./restart_ice_in_0000.nc ok
           read sxsal_htc4 (rec:      1) in ./restart_ice_in_0000.nc ok
           read sysal_htc4 (rec:      1) in ./restart_ice_in_0000.nc ok
           read sxxsal_htc4 (rec:      1) in ./restart_ice_in_0000.nc ok
           read syysal_htc4 (rec:      1) in ./restart_ice_in_0000.nc ok
           read sxysal_htc4 (rec:      1) in ./restart_ice_in_0000.nc ok
           read sxage_htc4 (rec:      1) in ./restart_ice_in_0000.nc ok
           read syage_htc4 (rec:      1) in ./restart_ice_in_0000.nc ok
           read sxxage_htc4 (rec:      1) in ./restart_ice_in_0000.nc ok
           read syyage_htc4 (rec:      1) in ./restart_ice_in_0000.nc ok
           read sxyage_htc4 (rec:      1) in ./restart_ice_in_0000.nc ok
           read sxice_htc5 (rec:      1) in ./restart_ice_in_0000.nc ok
           read syice_htc5 (rec:      1) in ./restart_ice_in_0000.nc ok
           read sxxice_htc5 (rec:      1) in ./restart_ice_in_0000.nc ok
           read syyice_htc5 (rec:      1) in ./restart_ice_in_0000.nc ok
           read sxyice_htc5 (rec:      1) in ./restart_ice_in_0000.nc ok
           read sxsn_htc5 (rec:      1) in ./restart_ice_in_0000.nc ok
           read sysn_htc5 (rec:      1) in ./restart_ice_in_0000.nc ok
           read sxxsn_htc5 (rec:      1) in ./restart_ice_in_0000.nc ok
           read syysn_htc5 (rec:      1) in ./restart_ice_in_0000.nc ok
           read sxysn_htc5 (rec:      1) in ./restart_ice_in_0000.nc ok
           read sxa_htc5 (rec:      1) in ./restart_ice_in_0000.nc ok
           read sya_htc5 (rec:      1) in ./restart_ice_in_0000.nc ok
           read sxxa_htc5 (rec:      1) in ./restart_ice_in_0000.nc ok
           read syya_htc5 (rec:      1) in ./restart_ice_in_0000.nc ok
           read sxya_htc5 (rec:      1) in ./restart_ice_in_0000.nc ok
           read sxc0_htc5 (rec:      1) in ./restart_ice_in_0000.nc ok
           read syc0_htc5 (rec:      1) in ./restart_ice_in_0000.nc ok
           read sxxc0_htc5 (rec:      1) in ./restart_ice_in_0000.nc ok
           read syyc0_htc5 (rec:      1) in ./restart_ice_in_0000.nc ok
           read sxyc0_htc5 (rec:      1) in ./restart_ice_in_0000.nc ok
           read sxsal_htc5 (rec:      1) in ./restart_ice_in_0000.nc ok
           read sysal_htc5 (rec:      1) in ./restart_ice_in_0000.nc ok
           read sxxsal_htc5 (rec:      1) in ./restart_ice_in_0000.nc ok
           read syysal_htc5 (rec:      1) in ./restart_ice_in_0000.nc ok
           read sxysal_htc5 (rec:      1) in ./restart_ice_in_0000.nc ok
           read sxage_htc5 (rec:      1) in ./restart_ice_in_0000.nc ok
           read syage_htc5 (rec:      1) in ./restart_ice_in_0000.nc ok
           read sxxage_htc5 (rec:      1) in ./restart_ice_in_0000.nc ok
           read syyage_htc5 (rec:      1) in ./restart_ice_in_0000.nc ok
           read sxyage_htc5 (rec:      1) in ./restart_ice_in_0000.nc ok
           read sxopw (rec:      1) in ./restart_ice_in_0000.nc ok
           read syopw (rec:      1) in ./restart_ice_in_0000.nc ok
           read sxxopw (rec:      1) in ./restart_ice_in_0000.nc ok
           read syyopw (rec:      1) in ./restart_ice_in_0000.nc ok
           read sxyopw (rec:      1) in ./restart_ice_in_0000.nc ok
           read sxe_il1_htc1 (rec:      1) in ./restart_ice_in_0000.nc ok
           read sye_il1_htc1 (rec:      1) in ./restart_ice_in_0000.nc ok
           read sxxe_il1_htc1 (rec:      1) in ./restart_ice_in_0000.nc ok
           read syye_il1_htc1 (rec:      1) in ./restart_ice_in_0000.nc ok
           read sxye_il1_htc1 (rec:      1) in ./restart_ice_in_0000.nc ok
           read sxe_il2_htc1 (rec:      1) in ./restart_ice_in_0000.nc ok
           read sye_il2_htc1 (rec:      1) in ./restart_ice_in_0000.nc ok
           read sxxe_il2_htc1 (rec:      1) in ./restart_ice_in_0000.nc ok
           read syye_il2_htc1 (rec:      1) in ./restart_ice_in_0000.nc ok
           read sxye_il2_htc1 (rec:      1) in ./restart_ice_in_0000.nc ok
           read sxe_il1_htc2 (rec:      1) in ./restart_ice_in_0000.nc ok
           read sye_il1_htc2 (rec:      1) in ./restart_ice_in_0000.nc ok
           read sxxe_il1_htc2 (rec:      1) in ./restart_ice_in_0000.nc ok
           read syye_il1_htc2 (rec:      1) in ./restart_ice_in_0000.nc ok
           read sxye_il1_htc2 (rec:      1) in ./restart_ice_in_0000.nc ok
           read sxe_il2_htc2 (rec:      1) in ./restart_ice_in_0000.nc ok
           read sye_il2_htc2 (rec:      1) in ./restart_ice_in_0000.nc ok
           read sxxe_il2_htc2 (rec:      1) in ./restart_ice_in_0000.nc ok
           read syye_il2_htc2 (rec:      1) in ./restart_ice_in_0000.nc ok
           read sxye_il2_htc2 (rec:      1) in ./restart_ice_in_0000.nc ok
           read sxe_il1_htc3 (rec:      1) in ./restart_ice_in_0000.nc ok
           read sye_il1_htc3 (rec:      1) in ./restart_ice_in_0000.nc ok
           read sxxe_il1_htc3 (rec:      1) in ./restart_ice_in_0000.nc ok
           read syye_il1_htc3 (rec:      1) in ./restart_ice_in_0000.nc ok
           read sxye_il1_htc3 (rec:      1) in ./restart_ice_in_0000.nc ok
           read sxe_il2_htc3 (rec:      1) in ./restart_ice_in_0000.nc ok
           read sye_il2_htc3 (rec:      1) in ./restart_ice_in_0000.nc ok
           read sxxe_il2_htc3 (rec:      1) in ./restart_ice_in_0000.nc ok
           read syye_il2_htc3 (rec:      1) in ./restart_ice_in_0000.nc ok
           read sxye_il2_htc3 (rec:      1) in ./restart_ice_in_0000.nc ok
           read sxe_il1_htc4 (rec:      1) in ./restart_ice_in_0000.nc ok
           read sye_il1_htc4 (rec:      1) in ./restart_ice_in_0000.nc ok
           read sxxe_il1_htc4 (rec:      1) in ./restart_ice_in_0000.nc ok
           read syye_il1_htc4 (rec:      1) in ./restart_ice_in_0000.nc ok
           read sxye_il1_htc4 (rec:      1) in ./restart_ice_in_0000.nc ok
           read sxe_il2_htc4 (rec:      1) in ./restart_ice_in_0000.nc ok
           read sye_il2_htc4 (rec:      1) in ./restart_ice_in_0000.nc ok
           read sxxe_il2_htc4 (rec:      1) in ./restart_ice_in_0000.nc ok
           read syye_il2_htc4 (rec:      1) in ./restart_ice_in_0000.nc ok
           read sxye_il2_htc4 (rec:      1) in ./restart_ice_in_0000.nc ok
           read sxe_il1_htc5 (rec:      1) in ./restart_ice_in_0000.nc ok
           read sye_il1_htc5 (rec:      1) in ./restart_ice_in_0000.nc ok
           read sxxe_il1_htc5 (rec:      1) in ./restart_ice_in_0000.nc ok
           read syye_il1_htc5 (rec:      1) in ./restart_ice_in_0000.nc ok
           read sxye_il1_htc5 (rec:      1) in ./restart_ice_in_0000.nc ok
           read sxe_il2_htc5 (rec:      1) in ./restart_ice_in_0000.nc ok
           read sye_il2_htc5 (rec:      1) in ./restart_ice_in_0000.nc ok
           read sxxe_il2_htc5 (rec:      1) in ./restart_ice_in_0000.nc ok
           read syye_il2_htc5 (rec:      1) in ./restart_ice_in_0000.nc ok
           read sxye_il2_htc5 (rec:      1) in ./restart_ice_in_0000.nc ok

 lim_sbc_init : LIM-3 sea-ice - surface boundary condition
 ~~~~~~~~~~~~~   

 dyn_nept_init : Simplified Neptune module
 ~~~~~~~~~~~~~
  -->   Reading namelist namdyn_nept parameters:
        ln_neptsimp          =  F


 zdf_init: vertical physics
 ~~~~~~~~
    Namelist namzdf : set vertical mixing mixing parameters
       vertical eddy viscosity             rn_avm0   =    1.2000000000000000E-004
       vertical eddy diffusivity           rn_avt0   =    1.2000000000000000E-005
       constant background or profile      nn_avb    =            0
       horizontal variation for avtb       nn_havtb  =            0
       time splitting / backward scheme    ln_zdfexp =  F
       number of time step                 nn_zdfexp =            3
       enhanced vertical diffusion         ln_zdfevd =  T
          applied on momentum (=1/0)       nn_evdm   =            0
       vertical coefficient for evd        rn_avevd  =    100.00000000000000     
       non-penetrative convection (npc)    ln_zdfnpc =  F
       npc call  frequency                 nn_npc    =            1
       npc print frequency                 nn_npcp   =          365

    vertical mixing option :
       TKE dependent eddy coefficients

    convection :
       use enhanced vertical dif. scheme
       use the 1.5 turbulent closure

 zdf_bfr_init : momentum bottom friction
 ~~~~~~~~~~~~~
    Namelist nam_bfr : set bottom friction parameters
       linear botton friction
       bottom friction coef.   rn_bfri1  =    4.0000000000000002E-004
       implicit bottom friction switch                ln_bfrimp  =  T

 zdf_tke_init : tke turbulent closure scheme - initialisation
 ~~~~~~~~~~~~
    Namelist namzdf_tke : set tke mixing parameters
       coef. to compute avt                        rn_ediff  =   0.17999999999999999     
       Kolmogoroff dissipation coef.               rn_ediss  =   0.69999999999999996     
       tke surface input coef.                     rn_ebb    =    4.7500000000000000     
       minimum value of tke                        rn_emin   =    9.9999999999999995E-007
       surface minimum value of tke                rn_emin0  =    1.0000000000000000E-004
       background shear (>0)                       rn_bshear =    9.9999999999999995E-021
       mixing length type                          nn_mxl    =            2
       prandl number flag                          nn_pdl    =            1
       surface mixing length = F(stress) or not    ln_mxl0   =  T
       surface  mixing length minimum value        rn_mxl0   =    4.0000000000000001E-002
       flag to take into acc.  Langmuir circ.      ln_lc     =  T
       coef to compute verticla velocity of LC     rn_lc     =   0.14999999999999999     
       test param. to add tke induced by wind      nn_etau   =            1
       flag for computation of exp. tke profile    nn_htau   =            1
       fraction of en which pene. the thermocline  rn_efr    =    5.5000000000000000E-002

       critical Richardson nb with your parameters  ri_cri =   0.33962264150943394     
    use a surface mixing length = F(stress) :   set rn_mxl0 = rmxl_min
           read en (rec:      1) in ./restart_0000.nc ok
           read avt (rec:      1) in ./restart_0000.nc ok
           read avm (rec:      1) in ./restart_0000.nc ok
           read avmu (rec:      1) in ./restart_0000.nc ok
           read avmv (rec:      1) in ./restart_0000.nc ok
           read dissl (rec:      1) in ./restart_0000.nc ok

 zdf_tmx_init : tidal mixing
 ~~~~~~~~~~~~
    Namelist namzdf_tmx : set tidal mixing parameters
       Vertical decay scale for turbulence   =    600.00000000000000     
       Brunt-Vaisala frequency threshold     =    1.0000000000000000E-008
       Tidal dissipation efficiency          =   0.33300000000000002     
       Mixing efficiency                     =   0.23999999999999999     
       ITF specific parameterisation         =  T
       ITF tidal dissipation efficiency      =    1.0000000000000000     

 ===>>> : E R R O R
         ===========

                     iom_open ~~~
 File mask_itf.nc* not found

 ===>>> : E R R O R
         ===========

                     iom_open ~~~
 File M2rowdrg.nc* not found

 ===>>> : E R R O R
         ===========

                     iom_open ~~~
 File K1rowdrg.nc* not found

 zdf_ddm : double diffusive mixing
 ~~~~~~~
    Namelist namzdf_ddm : set dd mixing parameter
       maximum avs for dd mixing      rn_avts   =    1.0000000000000000E-004
       heat/salt buoyancy flux ratio  rn_hsbfr  =    1.6000000000000001     

 ldf_tra_init : lateral tracer physics
 ~~~~~~~~~~~~ 
    Namelist namtra_ldf : lateral mixing parameters (type, direction, coefficients)
       laplacian operator            ln_traldf_lap   =  T
       bilaplacian operator          ln_traldf_bilap =  F
       iso-level                     ln_traldf_level =  F
       horizontal (geopotential)     ln_traldf_hor   =  F
       iso-neutral                   ln_traldf_iso   =  T
       iso-neutral (Griffies)        ln_traldf_grif  =  F
       Griffies strmfn diagnostics   ln_traldf_gdia  =  F
       lateral eddy diffusivity      rn_aht_0        =    2200.0000000000000     
       background hor. diffusivity   rn_ahtb_0       =    0.0000000000000000     
       eddy induced velocity coef.   rn_aeiv_0       =    2000.0000000000000     
       maximum isoppycnal slope      rn_slpmax       =    1.0000000000000000E-002
       pure lateral mixing in ML     ln_triad_iso    =  F
       lateral mixing on bottom      ln_botmix_grif  =  F

           tracer mixing coef. = F( latitude, longitude)
           harmonic tracer diffusion (default)

  ldf_tra_c2d : 2D eddy diffusivity and eddy
  ~~~~~~~~~~~   --  induced velocity coefficients
                ORCA R2 or R4 case
                Constant values used for eddy diffusivity coefficients
                Variation lat/lon only for eddy induced velocity coefficients

 ldf_dyn : lateral momentum physics
 ~~~~~~~
    Namelist namdyn_ldf : set lateral mixing parameters
       laplacian operator                      ln_dynldf_lap   =  T
       bilaplacian operator                    ln_dynldf_bilap =  F
       iso-level                               ln_dynldf_level =  F
       horizontal (geopotential)               ln_dynldf_hor   =  T
       iso-neutral                             ln_dynldf_iso   =  F
       horizontal laplacian eddy viscosity     rn_ahm_0_lap    =    40000.000000000000     
       background viscosity                    rn_ahmb_0       =    0.0000000000000000     
       horizontal bilaplacian eddy viscosity   rn_ahm_0_blp    =    0.0000000000000000     
       upper limit for laplacian eddy visc     rn_ahm_m_lap    =    40000.000000000000     
       upper limit for bilap eddy viscosity    rn_ahm_m_blp    =   -1000000000000.0000     
    momentum mixing coef. = F( latitude, longitude, depth)
    harmonic momentum diff. (default)

 ldf_dyn_c3d : 3D lateral eddy viscosity coefficient
 ~~~~~~~~~~~
               laplacian operator: ahm proportional to e1
               maximum grid-spacing =    100.00000000000000       maximum value for ahm =    40000.000000000000     

          ahm profile : 

  jk      ahm         depth t-level 
     1      1.0000      4.9999
     2      0.9994     15.0002
     3      0.9989     25.0016
     4      0.9982     35.0052
     5      0.9976     45.0130
     6      0.9970     55.0288
     7      0.9963     65.0605
     8      0.9956     75.1231
     9      0.9948     85.2456
    10      0.9940     95.4851
    11      0.9932    105.9520
    12      0.9923    116.8615
    13      0.9913    128.6305
    14      0.9901    142.0653
    15      0.9885    158.7119
    16      0.9861    181.4947
    17      0.9822    215.7935
    18      0.9748    271.0021
    19      0.9588    361.9920
    20      0.9202    508.4190
    21      0.8210    728.7690
    22      0.6090   1030.1909
    23      0.3769   1403.5046
    24      0.2767   1829.5076
    25      0.2544   2288.9773
    26      0.2506   2767.8115
    27      0.2501   3257.2506
    28      0.2500   3752.3231
    29      0.2500   4250.3396
    30      0.2500   4749.8814
    31      0.2500   5250.2102

          ahm profile : 

  jk      ahm         depth t-level 
     1      1.0000      4.9999
     2      0.9994     15.0002
     3      0.9989     25.0016
     4      0.9982     35.0052
     5      0.9976     45.0130
     6      0.9970     55.0288
     7      0.9963     65.0605
     8      0.9956     75.1231
     9      0.9948     85.2456
    10      0.9940     95.4851
    11      0.9932    105.9520
    12      0.9923    116.8615
    13      0.9913    128.6305
    14      0.9901    142.0653
    15      0.9885    158.7119
    16      0.9861    181.4947
    17      0.9822    215.7935
    18      0.9748    271.0021
    19      0.9588    361.9920
    20      0.9202    508.4190
    21      0.8210    728.7690
    22      0.6090   1030.1909
    23      0.3769   1403.5046
    24      0.2767   1829.5076
    25      0.2544   2288.9773
    26      0.2506   2767.8115
    27      0.2501   3257.2506
    28      0.2500   3752.3231
    29      0.2500   4250.3396
    30      0.2500   4749.8814
    31      0.2500   5250.2102

               ORCA R1, R2 or R4: overwrite the previous definition of ahm
               =================

 ldfdyn_c3d_orca : 3D eddy viscosity coefficient
 ~~~~~~~~~~~~~~~
         orca R1, R2 or R4 configuration: reduced in the surface Eq. strip 

 ===>>> : E R R O R
         ===========

                     iom_open ~~~
 File ahmcoef.nc* not found

          1D zcoef array 
          ~~~~~~~~~~~~~~ 

     jk        zcoef 
      1        1.000
      2        1.000
      3        1.000
      4        1.000
      5        1.000
      6        1.000
      7        1.000
      8        1.000
      9        1.000
     10        1.000
     11        1.000
     12        1.000
     13        1.000
     14        1.000
     15        1.000
     16        1.000
     17        1.000
     18        1.000
     19        1.000
     20        1.000
     21        1.000
     22        2.000
     23        3.000
     24        5.000
     25        7.000
     26        9.000
     27       10.000
     28       10.000
     29       10.000
     30       10.000
     31       10.000

          3D ahm1 array (k=1)


        1    21
  21   2.20  2.20
   1   0.00  0.00

          3D ahm2 array (k=1)


        1    21
  21  40.00 40.00
   1  40.00 40.00

          3D ahm2 array (k=jpk)


        1    21
  21  40.00 40.00
   1  40.00 40.00

 ldf_slp_init : direction of lateral mixing
 ~~~~~~~~~~~~

 tra_qsr_init : penetration of the surface solar radiation
 ~~~~~~~~~~~~
    Namelist namtra_qsr : set the parameter of penetration
       Light penetration (T) or not (F)         ln_traqsr  =  T
       RGB (Red-Green-Blue) light penetration   ln_qsr_rgb =  T
       2 band               light penetration   ln_qsr_2bd =  F
       bio-model            light penetration   ln_qsr_bio =  F
       PlankTOM model       light penetration   ln_qsr_sms =  F
       light penetration for ice-model LIM3     ln_qsr_ice =  T
       RGB : Chl data (=1) or cst value (=0)    nn_chldta  =            1
       RGB & 2 bands: fraction of light (rn_si1)    rn_abs =   0.57999999999999996     
       RGB & 2 bands: shortess depth of extinction  rn_si0 =   0.34999999999999998     
       2 bands: longest depth of extinction         rn_si1 =    24.399999999999999     

          R-G-B   light penetration - Chl data 

 trc_oce_rgb : Initialisation of the optical look-up table
 ~~~~~~~~~~~ 
       RGB longest depth of extinction    r_si2 =    61.804697156983934     
     jc =           1   Chl =    1.0000000000000000E-002   irgb =            1
     jc =           2   Chl =    1.0999999999999999E-002   irgb =            2
     jc =           3   Chl =    1.2999999999999999E-002   irgb =            3
     jc =           4   Chl =    1.4000000000000000E-002   irgb =            4
     jc =           5   Chl =    1.6000000000000000E-002   irgb =            5
     jc =           6   Chl =    1.7999999999999999E-002   irgb =            6
     jc =           7   Chl =    2.0000000000000000E-002   irgb =            7
     jc =           8   Chl =    2.1999999999999999E-002   irgb =            8
     jc =           9   Chl =    2.5000000000000001E-002   irgb =            9
     jc =          10   Chl =    2.8000000000000001E-002   irgb =           10
     jc =          11   Chl =    3.2000000000000001E-002   irgb =           11
     jc =          12   Chl =    3.5000000000000003E-002   irgb =           12
     jc =          13   Chl =    4.0000000000000001E-002   irgb =           13
     jc =          14   Chl =    4.4999999999999998E-002   irgb =           14
     jc =          15   Chl =    5.0000000000000003E-002   irgb =           15
     jc =          16   Chl =    5.6000000000000001E-002   irgb =           16
     jc =          17   Chl =    6.3000000000000000E-002   irgb =           17
     jc =          18   Chl =    7.0999999999999994E-002   irgb =           18
     jc =          19   Chl =    7.9000000000000001E-002   irgb =           19
     jc =          20   Chl =    8.8999999999999996E-002   irgb =           20
     jc =          21   Chl =   0.10000000000000001        irgb =           21
     jc =          22   Chl =   0.11200000000000000        irgb =           22
     jc =          23   Chl =   0.12600000000000000        irgb =           23
     jc =          24   Chl =   0.14099999999999999        irgb =           24
     jc =          25   Chl =   0.15800000000000000        irgb =           25
     jc =          26   Chl =   0.17799999999999999        irgb =           26
     jc =          27   Chl =   0.20000000000000001        irgb =           27
     jc =          28   Chl =   0.22400000000000000        irgb =           28
     jc =          29   Chl =   0.25100000000000000        irgb =           29
     jc =          30   Chl =   0.28199999999999997        irgb =           30
     jc =          31   Chl =   0.31600000000000000        irgb =           31
     jc =          32   Chl =   0.35499999999999998        irgb =           32
     jc =          33   Chl =   0.39800000000000002        irgb =           33
     jc =          34   Chl =   0.44700000000000001        irgb =           34
     jc =          35   Chl =   0.50100000000000000        irgb =           35
     jc =          36   Chl =   0.56200000000000006        irgb =           36
     jc =          37   Chl =   0.63100000000000001        irgb =           37
     jc =          38   Chl =   0.70799999999999996        irgb =           38
     jc =          39   Chl =   0.79400000000000004        irgb =           39
     jc =          40   Chl =   0.89100000000000001        irgb =           40
     jc =          41   Chl =    1.0000000000000000        irgb =           41
     jc =          42   Chl =    1.1220000000000001        irgb =           42
     jc =          43   Chl =    1.2589999999999999        irgb =           43
     jc =          44   Chl =    1.4130000000000000        irgb =           44
     jc =          45   Chl =    1.5850000000000000        irgb =           45
     jc =          46   Chl =    1.7780000000000000        irgb =           46
     jc =          47   Chl =    1.9950000000000001        irgb =           47
     jc =          48   Chl =    2.2389999999999999        irgb =           48
     jc =          49   Chl =    2.5120000000000000        irgb =           49
     jc =          50   Chl =    2.8180000000000001        irgb =           50
     jc =          51   Chl =    3.1619999999999999        irgb =           51
     jc =          52   Chl =    3.5480000000000000        irgb =           52
     jc =          53   Chl =    3.9809999999999999        irgb =           53
     jc =          54   Chl =    4.4669999999999996        irgb =           54
     jc =          55   Chl =    5.0119999999999996        irgb =           55
     jc =          56   Chl =    5.6230000000000002        irgb =           56
     jc =          57   Chl =    6.3099999999999996        irgb =           57
     jc =          58   Chl =    7.0789999999999997        irgb =           58
     jc =          59   Chl =    7.9429999999999996        irgb =           59
     jc =          60   Chl =    8.9120000000000008        irgb =           60
     jc =          61   Chl =    10.000000000000000        irgb =           61
         level of light extinction =            1  ref depth =    10.000015488051758       m

         Chlorophyll read in a file

 tra_qsr_init : Solar penetration function of read chlorophyll
 ~~~~~~~~~~~~
           namtra_qsr Namelist
           list of files and frequency (>0: in hours ; <0 in months)
                root filename: ./chlorophyll variable name: CHLA
                frequency:   -1.0000000000000000       time interp:  T  climatology:  T  weights    :  pairing    :  data type: yearly   land/sea mask:
           read fraqsr_1lev (rec:      1) in ./restart_0000.nc ok

 tra_bbc : Bottom Boundary Condition (bbc), apply a Geothermal heating
 ~~~~~~~   
    Namelist nambbc : set bbc parameters
       Apply a geothermal heating at ocean bottom   ln_trabbc     =  T
       type of geothermal flux                      nn_geoflx     =            2
       Constant geothermal flux value               rn_geoflx_cst =    8.6400000000000005E-002

       *** variable geothermal heat flux

 tra_bbc_init : bottom temperature boundary condition
 ~~~~~~~~~~~~
           nambbc Namelist
           list of files and frequency (>0: in hours ; <0 in months)
                root filename: ./geothermal_heating.nc variable name: heatflow
                frequency:   -12.000000000000000       time interp:  F  climatology:  T  weights    :  pairing    :  data type: yearly   land/sea mask:

 ===>>> : E R R O R
         ===========

                     iom_open ~~~
 File ./geothermal_heating.nc* not found
fld_read: var heatflow kt =  1719151 ( 365.0333 days), Y/M/D = 2064/01/01, record:   0001 (days  365.0000 <->  730.0000)

 tra_bbl_init : bottom boundary layer initialisation
 ~~~~~~~~~~~~
        Namelist nambbl : set bbl parameters
           diffusive bbl (=1)   or not (=0)    nn_bbl_ldf =            1
           advective bbl (=1/2) or not (=0)    nn_bbl_adv =            0
           diffusive bbl coefficient           rn_ahtbbl  =    1000.0000000000000       m2/s
           advective bbl coefficient           rn_gambbl  =    10.000000000000000       s

 tra_dmp_init : T and S newtonian relaxation
 ~~~~~~~
    Namelist namtra_dmp : set relaxation parameters
       Apply relaxation   or not       ln_tradmp =  F
       mixed layer damping option      nn_zdmp   =            0
       Damping file name               cn_resto  = resto.nc                                                                                                                                                                                                


 tra_adv_init : choice/control of the tracer advection scheme
 ~~~~~~~~~~~
    Namelist namtra_adv : chose a advection scheme for tracers
       2nd order advection scheme     ln_traadv_cen2    =  F
       TVD advection scheme           ln_traadv_tvd     =  T
       MUSCL  advection scheme        ln_traadv_muscl   =  F
       MUSCL2 advection scheme        ln_traadv_muscl2  =  F
       UBS    advection scheme        ln_traadv_ubs     =  F
       QUICKEST advection scheme      ln_traadv_qck     =  F
       upstream scheme within muscl   ln_traadv_msc_ups =  F
       TVD advection scheme with zts  ln_traadv_tvd_zts =  F

          TVD       scheme is used

 tra_adv_mle_init : mixed layer eddy (MLE) advection acting on tracers
 ~~~~~~~~~~~~~~~~
    Namelist namtra_adv_mle : mixed layer eddy advection on tracers
       use mixed layer eddy (MLE, i.e. Fox-Kemper param) (T/F)      ln_mle    =  T
       MLE type: =0 standard Fox-Kemper ; =1 new formulation        nn_mle    =            1
       magnitude of the MLE (typical value: 0.06 to 0.08)           rn_ce     =    5.9999999999999998E-002
       scale of ML front (ML radius of deformation) (rn_mle=0)      rn_lf     =    5000.0000000000000      m
       maximum time scale of MLE                    (rn_mle=0)      rn_time   =    172800.00000000000      s
       reference latitude (degrees) of MLE coef.    (rn_mle=1)      rn_lat    =    20.000000000000000      deg
       space interp. of MLD at u-(v-)pts (0=min,1=averaged,2=max)   nn_mld_uv =            0
       =1 no MLE in case of convection ; =0 always MLE              nn_conv   =            0
       Density difference used to define ML for FK              rn_rho_c_mle  =    1.0000000000000000E-002

    Mixed Layer Eddy induced transport added to tracer advection
    New formulation

       ML buoyancy criteria =    9.5581384015594543E-005  m/s2 
       associated ML density criteria defined in zdfmxl =    1.0000000000000000E-002 kg/m3

 tra_ldf_init : lateral tracer diffusive operator
 ~~~~~~~~~~~
    Namelist namtra_ldf already read in ldftra module
    see ldf_tra_init report for lateral mixing parameters


           Rotated laplacian operator

 tra:ldf_ano : lateral diffusion acting on the full fields
 ~~~~~~~~~~~

 tra_zdf_init : vertical tracer physics scheme
 ~~~~~~~~~~~
               Implicit (euler backward) scheme

 dyn_adv_init : choice/control of the momentum advection scheme
 ~~~~~~~~~~~
        Namelist namdyn_adv : chose a advection formulation & scheme for momentum
           Vector/flux form (T/F)                           ln_dynadv_vec  =  T
           = 0 standard scheme  ; =1 Hollingsworth scheme   nn_dynkeg      =            0
           2nd order centred advection scheme               ln_dynadv_cen2 =  F
           3rd order UBS advection scheme                   ln_dynadv_ubs  =  F
           Sub timestepping of vertical advection           ln_dynzad_zts  =  F

          vector form : keg + zad + vor is used
 with Centered standard keg scheme

 dyn_vor_init : vorticity term : read namelist and control the consistency
 ~~~~~~~~~~~~
         Namelist namdyn_vor : choice of the vorticity term scheme
            energy    conserving scheme                ln_dynvor_ene =  F
            enstrophy conserving scheme                ln_dynvor_ens =  F
            mixed enstrophy/energy conserving scheme   ln_dynvor_mix =  F
            enstrophy and energy conserving scheme     ln_dynvor_een =  T
            enstrophy and energy conserving scheme (old) ln_dynvor_een_old=  F

          Vector form advection : vorticity = Coriolis + relative vorticity

          vorticity scheme : energy and enstrophy conserving scheme

 dyn_ldf_init : Choice of the lateral diffusive operator on dynamics
 ~~~~~~~~~~~
        Namelist nam_dynldf : set lateral mixing parameters (type, direction, coefficients)
           laplacian operator          ln_dynldf_lap   =  T
           bilaplacian operator        ln_dynldf_bilap =  F
           iso-level                   ln_dynldf_level =  F
           horizontal (geopotential)   ln_dynldf_hor   =  T
           iso-neutral                 ln_dynldf_iso   =  F

               laplacian operator

 dyn_hpg_init : hydrostatic pressure gradient initialisation
 ~~~~~~~~~~~~
    Namelist namdyn_hpg : choice of hpg scheme
       z-coord. - full steps                             ln_hpg_zco    =  F
       z-coord. - partial steps (interpolation)          ln_hpg_zps    =  F
       s-coord. (standard jacobian formulation)          ln_hpg_sco    =  T
       s-coord. (standard jacobian formulation) for isf  ln_hpg_isf    =  F
       s-coord. (Density Jacobian: Cubic polynomial)     ln_hpg_djc    =  F
       s-coord. (Pressure Jacobian: Cubic polynomial)    ln_hpg_prj    =  F
       time stepping: centered (F) or semi-implicit (T)  ln_dynhpg_imp =  F

 dyn_zdf_init : vertical dynamics physics scheme
 ~~~~~~~~~~~
               Implicit (euler backward) scheme

 dyn_spg_init : choice of the surface pressure gradient scheme
 ~~~~~~~~~~~
      Explicit free surface                  lk_dynspg_exp =  F
      Free surface with time splitting       lk_dynspg_ts  =  T
      Filtered free surface cst volume       lk_dynspg_flt =  F

 dyn_spg_ts : split-explicit free surface
 ~~~~~~~~~~
      ln_ts_nn_auto=.true. Automatically set nn_baro 
      Max. courant number allowed:   0.80000000000000004     
      ln_bt_av=.true.  => Time averaging over nn_baro time steps is on 
      ln_bt_fw=.true.  => Forward integration of barotropic variables 
      Time filter choice, nn_bt_flt:            1
            Boxcar: width = nn_baro
  
      nn_baro =            0
      Barotropic time step [s] is :                  Infinity
      Maximum Courant number is   :                       NaN
           read ub2_b (rec:      1) in ./restart_0000.nc ok
           read vb2_b (rec:      1) in ./restart_0000.nc ok

      free surface with time splitting scheme

 icbini :   Namelist namberg ln_icebergs = F , NO icebergs used
 ~~~~~~~~ 

 ===>>> : W A R N I N G
         ===============

 W A R N I N G:  end of record or file while reading namelist namsto in configuration namelist iostat =   -1

 sto_par_init : stochastic parameterization
 ~~~~~~~~~~~~
    Namelist namsto : stochastic parameterization
       restart stochastic parameters           ln_rststo     =  F
       read seed of RNG from restart file      ln_rstseed    =  T
       suffix of sto restart name (input)      cn_storst_in  = restart_sto                     
       suffix of sto restart name (output)     cn_storst_out = restart_sto                     
       stochastic equation of state            ln_sto_eos    =  F
       number of degrees of freedom            nn_sto_eos    =            1
       random walk horz. std (in grid points)  rn_eos_stdxy  =    1.3999999999999999     
       random walk vert. std (in grid points)  rn_eos_stdz   =   0.69999999999999996     
       random walk tcor (in timesteps)         rn_eos_tcor   =    1440.0000000000000     
       order of autoregressive  processes      nn_eos_ord    =            1
       passes of Laplacian filter              nn_eos_flt    =            0
       limitation factor                       rn_eos_lim    =    2.0000000000000000     

    stochastic parameterization :

 dia_ptr_init : poleward transport and msf initialization
 ~~~~~~~~~~~~
    Namelist namptr : set ptr parameters
       Poleward heat & salt transport (T) or not (F)      ln_diaptr  =  F
       Global (F) or glo/Atl/Pac/Ind/Indo-Pac basins      ln_subbas  =  F

 dia_hsb_init : check the heat and salt budgets
 ~~~~~~~~ 

 dia_hsb_init : check the heat and salt budgets
 ~~~~~~~~~~~~
    Namelist namhsb : set hsb parameters
       Switch for hsb diagnostic (T) or not (F)  ln_diahsb  =  F


 ===>>> : W A R N I N G
         ===============

 W A R N I N G:  end of record or file while reading namelist namtrd in configuration namelist iostat =   -1

  trd_init : Momentum/Tracers trends
  ~~~~~~~~~~
    Namelist namtrd : set trends parameters
       global domain averaged dyn & tra trends   ln_glo_trd  =  F
       U & V trends: 3D output                   ln_dyn_trd  =  F
       U & V trends: Mixed Layer averaged        ln_dyn_mxl  =  F
       T & S trends: 3D output                   ln_tra_trd  =  F
       T & S trends: Mixed Layer averaged        ln_tra_mxl  =  F
       Kinetic   Energy trends                   ln_KE_trd   =  F
       Potential Energy trends                   ln_PE_trd   =  F
       Barotropic vorticity trends               ln_vor_trd  =  F
       frequency of trends diagnostics (glo)     nn_trd      =          365

 dia_obs_init : Observation diagnostic initialization
 ~~~~~~~~~~~~
           Namelist namobs : set observation diagnostic parameters
              Logical switch for T profile observations          ln_t3d =  F
              Logical switch for S profile observations          ln_s3d =  F
              Logical switch for ENACT insitu data set           ln_ena =  F
              Logical switch for Coriolis insitu data set        ln_cor =  F
              Logical switch for feedback insitu data set      ln_profb =  F
              Logical switch for SLA observations                ln_sla =  F
              Logical switch for AVISO SLA data                ln_sladt =  F
              Logical switch for feedback SLA data             ln_slafb =  F
              Logical switch for SSH observations                ln_ssh =  F
              Logical switch for SST observations                ln_sst =  F
              Logical switch for Reynolds observations        ln_reysst =  F
              Logical switch for GHRSST observations          ln_ghrsst =  F
              Logical switch for feedback SST data             ln_sstfb =  F
              Logical switch for night-time SST obs         ln_sstnight =  F
              Logical switch for SSS observations                ln_sss =  F
              Logical switch for Sea Ice observations         ln_seaice =  F
              Logical switch for velocity observations         ln_vel3d =  F
              Logical switch for velocity daily av. cur.    ln_velavcur =  F
              Logical switch for velocity high freq. cur.   ln_velhrcur =  F
              Logical switch for velocity daily av. ADCP   ln_velavadcp =  F
              Logical switch for velocity high freq. ADCP  ln_velhradcp =  F
              Logical switch for feedback velocity data        ln_velfb =  F
              Global distribtion of observations         ln_grid_global =  T
              Logical switch for obs grid search w/lookup table  ln_grid_search_lookup =  F
              Initial date in window YYYYMMDD.HHMMSS        dobsini =    20000101.000000000     
              Final date in window YYYYMMDD.HHMMSS          dobsend =    20010101.000000000     
              Type of vertical interpolation method          n1dint =            0
              Type of horizontal interpolation method        n2dint =            0
              Rejection of observations near land swithch    ln_nea =  F
              MSSH correction scheme                         nmsshc =            0
              MDT  correction                               mdtcorr =    1.6100000000000001     
              MDT cutoff for computed correction          mdtcutoff =    65.000000000000000     
              Logical switch for alt bias                ln_altbias =  F
              Logical switch for ignoring missing files   ln_ignmis =  T
              ENACT daily average types                             =          820          -1          -1          -1          -1          -1          -1          -1          -1          -1          -1          -1          -1          -1          -1          -1          -1          -1          -1          -1

 ===>>> : W A R N I N G
         ===============

  key_diaobs is activated but logical flags ln_t3d, ln_s3d, ln_sla, ln_ssh, ln_sst, ln_sss, ln_seaice, ln_vel3d are all set to .FALSE.

 dia_obs : Call the observation operators     1719150
 ~~~~~~~

 asm_inc_init : Assimilation increment initialization :
 ~~~~~~~~~~~~
    Namelist namasm : set assimilation increment parameters
       Logical switch for writing out background state          ln_bkgwri =  F
       Logical switch for applying tracer increments            ln_trainc =  F
       Logical switch for applying velocity increments          ln_dyninc =  F
       Logical switch for applying SSH increments               ln_sshinc =  F
       Logical switch for Direct Initialization (DI)            ln_asmdin =  F
       Logical switch for applying sea ice increments        ln_seaiceinc =  F
       Logical switch for Incremental Analysis Updating (IAU)   ln_asmiau =  F
       Timestep of background in [0,nitend-nit000-1]            nitbkg    =            0
       Timestep of background for DI in [0,nitend-nit000-1]     nitdin    =            0
       Timestep of start of IAU interval in [0,nitend-nit000-1] nitiaustr =            1
       Timestep of end of IAU interval in [0,nitend-nit000-1]   nitiaufin =           15
       Type of IAU weighting function                           niaufn    =            0
       Logical switch for ensuring that the sa > salfixmin      ln_salfix =  F
       Minimum salinity after applying the increments           salfixmin =   -9999.0000000000000     

    Time steps referenced to current cycle:
        iitrst      =      1719150
        nit000      =      1719151
        nitend      =      1724625
        nitbkg_r    =      1719150
        nitdin_r    =      1719150
        nitiaustr_r =      1719151
        nitiaufin_r =      1719165

    Dates referenced to current cycle:
        ndastp         =     20640101
        ndate0         =     17500101
        iitend_date    =     17501231
        iitbkg_date    =     20640101
        iitdin_date    =     20640101
        iitiaustr_date =     17500101
        iitiaufin_date =     17500101

 ===>>> : W A R N I N G
         ===============

  ln_trainc, ln_dyninc, ln_sshinc and ln_seaiceinc are set to .false. :
  The assimilation increments are not applied
 Euler time step switch is            1

AAAAAAAA


AAAAAAAA


 ===>>> : E R R O R
         ===========

           8  error have been found
                     iom_close ~~~ close file: ./restart_0000.nc ok
                     iom_close ~~~ close file: ./restart_ice_in_0000.nc ok
